MODEL 1
REMARK VINA RESULT:      -8.3      0.000      0.000
REMARK  11 active torsions:
REMARK  status: ('A' for Active; 'I' for Inactive)
REMARK    1  A    between atoms: C_2  and  C_3 
REMARK    2  A    between atoms: C_5  and  C_16 
REMARK    3  A    between atoms: C_8  and  O_9 
REMARK    4  A    between atoms: O_9  and  C_10 
REMARK    5  A    between atoms: C_10  and  C_11 
REMARK    6  A    between atoms: C_11  and  C_12 
REMARK    7  A    between atoms: C_11  and  O_14 
REMARK    8  A    between atoms: C_12  and  O_13 
REMARK    9  A    between atoms: C_19  and  C_23 
REMARK   10  A    between atoms: C_25  and  C_32 
REMARK   11  A    between atoms: C_28  and  O_30 
ROOT
HETATM    1  C   UNK N   1      27.879  19.223   5.063  0.00  0.00     0.138 A 
HETATM    2  N   UNK N   1      26.567  19.221   5.264  0.00  0.00    -0.319 N 
ATOM      3  HN  UNK N   1      26.061  18.883   6.084  1.00  0.00     0.169 HD
HETATM    4  C   UNK N   1      26.061  19.758   4.157  0.00  0.00     0.182 A 
HETATM    5  O   UNK N   1      27.029  20.087   3.327  0.00  0.00    -0.217 OA
HETATM    6  N   UNK N   1      28.183  19.767   3.862  0.00  0.00    -0.242 N 
ATOM      7  HN  UNK N   1      29.110  19.899   3.459  1.00  0.00     0.196 HD
ENDROOT
BRANCH   1   8
HETATM    8  C   UNK N   1      28.746  18.516   6.009  0.00  0.00     0.011 A 
HETATM    9  C   UNK N   1      29.816  17.822   5.447  0.00  0.00     0.025 A 
HETATM   10  C   UNK N   1      30.802  17.230   6.207  0.00  0.00    -0.024 A 
HETATM   11  C   UNK N   1      30.733  17.322   7.617  0.00  0.00     0.081 A 
HETATM   12  C   UNK N   1      29.616  18.011   8.207  0.00  0.00    -0.027 A 
HETATM   13  C   UNK N   1      28.642  18.610   7.390  0.00  0.00     0.025 A 
HETATM   14  C   UNK N   1      29.427  18.142   9.679  0.00  0.00     0.051 C 
BRANCH  10  15
HETATM   15  C   UNK N   1      31.903  16.554   5.419  0.00  0.00     0.037 C 
HETATM   16  C   UNK N   1      32.908  17.437   4.701  0.00  0.00     0.010 C 
ENDBRANCH  10  15
BRANCH  11  17
HETATM   17  O   UNK N   1      31.725  16.748   8.346  0.00  0.00    -0.347 OA
BRANCH  17  18
HETATM   18  C   UNK N   1      32.940  17.311   8.641  0.00  0.00     0.209 C 
BRANCH  18  19
HETATM   19  C   UNK N   1      33.841  16.263   9.248  0.00  0.00     0.166 C 
BRANCH  19  20
HETATM   20  C   UNK N   1      33.026  15.022   9.530  0.00  0.00     0.198 C 
BRANCH  20  21
HETATM   21  O   UNK N   1      32.498  15.094  10.817  0.00  0.00    -0.398 OA
HETATM   22  H   UNK N   1      32.468  14.607  11.655  0.00  0.00     0.209 HD
ENDBRANCH  20  21
ENDBRANCH  19  20
BRANCH  19  23
HETATM   23  O   UNK N   1      34.411  16.747  10.427  0.00  0.00    -0.391 OA
HETATM   24  H   UNK N   1      33.882  17.197  11.104  0.00  0.00     0.210 HD
ENDBRANCH  19  23
ENDBRANCH  18  19
ENDBRANCH  17  18
ENDBRANCH  11  17
ENDBRANCH   1   8
BRANCH   4  25
HETATM   25  C   UNK N   1      24.611  19.728   3.961  0.00  0.00     0.023 A 
HETATM   26  C   UNK N   1      23.955  18.729   4.666  0.00  0.00     0.041 A 
HETATM   27  C   UNK N   1      22.624  18.458   4.466  0.00  0.00     0.016 A 
HETATM   28  N   UNK N   1      21.918  19.206   3.572  0.00  0.00    -0.340 N 
HETATM   29  C   UNK N   1      22.507  20.227   2.872  0.00  0.00     0.142 A 
ATOM     30  HN  UNK N   1      20.930  19.000   3.419  1.00  0.00     0.167 HD
HETATM   31  C   UNK N   1      23.890  20.498   3.045  0.00  0.00     0.072 A 
BRANCH  27  32
HETATM   32  C   UNK N   1      22.038  17.308   5.236  0.00  0.00     0.036 C 
HETATM   33  C   UNK N   1      21.299  17.774   6.475  0.00  0.00     0.011 C 
HETATM   34  C   UNK N   1      21.119  16.516   7.290  0.00  0.00     0.001 C 
HETATM   35  C   UNK N   1      22.258  15.591   6.878  0.00  0.00     0.001 C 
HETATM   36  C   UNK N   1      23.019  16.293   5.761  0.00  0.00     0.011 C 
ENDBRANCH  27  32
BRANCH  29  37
HETATM   37  O   UNK N   1      21.749  20.950   2.014  0.00  0.00    -0.341 OA
HETATM   38  C   UNK N   1      20.826  20.389   1.163  0.00  0.00     0.211 C 
ENDBRANCH  29  37
ENDBRANCH   4  25
TORSDOF 11
ENDMDL
MODEL 2
REMARK VINA RESULT:      -7.8      4.814     12.119
REMARK  11 active torsions:
REMARK  status: ('A' for Active; 'I' for Inactive)
REMARK    1  A    between atoms: C_2  and  C_3 
REMARK    2  A    between atoms: C_5  and  C_16 
REMARK    3  A    between atoms: C_8  and  O_9 
REMARK    4  A    between atoms: O_9  and  C_10 
REMARK    5  A    between atoms: C_10  and  C_11 
REMARK    6  A    between atoms: C_11  and  C_12 
REMARK    7  A    between atoms: C_11  and  O_14 
REMARK    8  A    between atoms: C_12  and  O_13 
REMARK    9  A    between atoms: C_19  and  C_23 
REMARK   10  A    between atoms: C_25  and  C_32 
REMARK   11  A    between atoms: C_28  and  O_30 
ROOT
HETATM    1  C   UNK N   1      33.814  16.977   8.422  0.00  0.00     0.138 A 
HETATM    2  N   UNK N   1      34.383  15.822   8.744  0.00  0.00    -0.319 N 
ATOM      3  HN  UNK N   1      34.143  14.890   8.403  1.00  0.00     0.169 HD
HETATM    4  C   UNK N   1      35.335  16.152   9.613  0.00  0.00     0.182 A 
HETATM    5  O   UNK N   1      35.351  17.456   9.798  0.00  0.00    -0.217 OA
HETATM    6  N   UNK N   1      34.412  18.006   9.066  0.00  0.00    -0.242 N 
ATOM      7  HN  UNK N   1      34.182  18.997   8.997  1.00  0.00     0.196 HD
ENDROOT
BRANCH   1   8
HETATM    8  C   UNK N   1      32.585  16.968   7.626  0.00  0.00     0.011 A 
HETATM    9  C   UNK N   1      31.438  17.422   8.276  0.00  0.00     0.025 A 
HETATM   10  C   UNK N   1      30.238  17.613   7.625  0.00  0.00    -0.024 A 
HETATM   11  C   UNK N   1      30.156  17.337   6.240  0.00  0.00     0.081 A 
HETATM   12  C   UNK N   1      31.326  16.840   5.566  0.00  0.00    -0.027 A 
HETATM   13  C   UNK N   1      32.531  16.674   6.270  0.00  0.00     0.025 A 
HETATM   14  C   UNK N   1      31.343  16.488   4.118  0.00  0.00     0.051 C 
BRANCH  10  15
HETATM   15  C   UNK N   1      29.116  18.148   8.488  0.00  0.00     0.037 C 
HETATM   16  C   UNK N   1      29.393  18.355   9.966  0.00  0.00     0.010 C 
ENDBRANCH  10  15
BRANCH  11  17
HETATM   17  O   UNK N   1      28.968  17.551   5.614  0.00  0.00    -0.347 OA
BRANCH  17  18
HETATM   18  C   UNK N   1      28.595  18.697   4.959  0.00  0.00     0.209 C 
BRANCH  18  19
HETATM   19  C   UNK N   1      27.127  18.952   5.199  0.00  0.00     0.166 C 
BRANCH  19  20
HETATM   20  C   UNK N   1      26.961  20.330   5.797  0.00  0.00     0.198 C 
BRANCH  20  21
HETATM   21  O   UNK N   1      26.590  20.216   7.135  0.00  0.00    -0.398 OA
HETATM   22  H   UNK N   1      26.953  20.011   8.010  0.00  0.00     0.209 HD
ENDBRANCH  20  21
ENDBRANCH  19  20
BRANCH  19  23
HETATM   23  O   UNK N   1      26.608  17.984   6.061  0.00  0.00    -0.391 OA
HETATM   24  H   UNK N   1      26.169  17.185   5.729  0.00  0.00     0.210 HD
ENDBRANCH  19  23
ENDBRANCH  18  19
ENDBRANCH  17  18
ENDBRANCH  11  17
ENDBRANCH   1   8
BRANCH   4  25
HETATM   25  C   UNK N   1      36.037  15.083  10.326  0.00  0.00     0.023 A 
HETATM   26  C   UNK N   1      35.542  14.815  11.595  0.00  0.00     0.041 A 
HETATM   27  C   UNK N   1      36.186  13.963  12.456  0.00  0.00     0.016 A 
HETATM   28  N   UNK N   1      37.327  13.339  12.049  0.00  0.00    -0.340 N 
HETATM   29  C   UNK N   1      37.842  13.539  10.795  0.00  0.00     0.142 A 
ATOM     30  HN  UNK N   1      37.809  12.709  12.692  1.00  0.00     0.167 HD
HETATM   31  C   UNK N   1      37.204  14.443   9.904  0.00  0.00     0.072 A 
BRANCH  27  32
HETATM   32  C   UNK N   1      35.595  13.803  13.829  0.00  0.00     0.036 C 
HETATM   33  C   UNK N   1      36.646  13.918  14.916  0.00  0.00     0.011 C 
HETATM   34  C   UNK N   1      35.963  13.371  16.146  0.00  0.00     0.001 C 
HETATM   35  C   UNK N   1      34.901  12.406  15.634  0.00  0.00     0.001 C 
HETATM   36  C   UNK N   1      34.923  12.486  14.113  0.00  0.00     0.011 C 
ENDBRANCH  27  32
BRANCH  29  37
HETATM   37  O   UNK N   1      38.966  12.874  10.437  0.00  0.00    -0.341 OA
HETATM   38  C   UNK N   1      39.182  12.380   9.172  0.00  0.00     0.211 C 
ENDBRANCH  29  37
ENDBRANCH   4  25
TORSDOF 11
ENDMDL
MODEL 3
REMARK VINA RESULT:      -7.8      4.918     11.901
REMARK  11 active torsions:
REMARK  status: ('A' for Active; 'I' for Inactive)
REMARK    1  A    between atoms: C_2  and  C_3 
REMARK    2  A    between atoms: C_5  and  C_16 
REMARK    3  A    between atoms: C_8  and  O_9 
REMARK    4  A    between atoms: O_9  and  C_10 
REMARK    5  A    between atoms: C_10  and  C_11 
REMARK    6  A    between atoms: C_11  and  C_12 
REMARK    7  A    between atoms: C_11  and  O_14 
REMARK    8  A    between atoms: C_12  and  O_13 
REMARK    9  A    between atoms: C_19  and  C_23 
REMARK   10  A    between atoms: C_25  and  C_32 
REMARK   11  A    between atoms: C_28  and  O_30 
ROOT
HETATM    1  C   UNK N   1      33.645  17.218   8.668  0.00  0.00     0.138 A 
HETATM    2  N   UNK N   1      34.123  16.022   8.989  0.00  0.00    -0.319 N 
ATOM      3  HN  UNK N   1      33.722  15.110   8.770  1.00  0.00     0.169 HD
HETATM    4  C   UNK N   1      35.241  16.282   9.661  0.00  0.00     0.182 A 
HETATM    5  O   UNK N   1      35.440  17.582   9.731  0.00  0.00    -0.217 OA
HETATM    6  N   UNK N   1      34.460  18.201   9.118  0.00  0.00    -0.242 N 
ATOM      7  HN  UNK N   1      34.338  19.207   9.005  1.00  0.00     0.196 HD
ENDROOT
BRANCH   1   8
HETATM    8  C   UNK N   1      32.305  17.317   8.085  0.00  0.00     0.011 A 
HETATM    9  C   UNK N   1      32.231  17.147   6.704  0.00  0.00     0.025 A 
HETATM   10  C   UNK N   1      31.033  17.067   6.026  0.00  0.00    -0.024 A 
HETATM   11  C   UNK N   1      29.823  17.162   6.753  0.00  0.00     0.081 A 
HETATM   12  C   UNK N   1      29.890  17.367   8.176  0.00  0.00    -0.027 A 
HETATM   13  C   UNK N   1      31.134  17.430   8.824  0.00  0.00     0.025 A 
HETATM   14  C   UNK N   1      28.680  17.512   9.034  0.00  0.00     0.051 C 
BRANCH  10  15
HETATM   15  C   UNK N   1      31.153  16.843   4.534  0.00  0.00     0.037 C 
HETATM   16  C   UNK N   1      32.298  17.519   3.803  0.00  0.00     0.010 C 
ENDBRANCH  10  15
BRANCH  11  17
HETATM   17  O   UNK N   1      28.654  17.060   6.067  0.00  0.00    -0.347 OA
BRANCH  17  18
HETATM   18  C   UNK N   1      27.670  18.013   6.004  0.00  0.00     0.209 C 
BRANCH  18  19
HETATM   19  C   UNK N   1      28.223  19.258   5.354  0.00  0.00     0.166 C 
BRANCH  19  20
HETATM   20  C   UNK N   1      27.383  20.442   5.772  0.00  0.00     0.198 C 
BRANCH  20  21
HETATM   21  O   UNK N   1      26.759  20.165   6.987  0.00  0.00    -0.398 OA
HETATM   22  H   UNK N   1      26.954  19.923   7.905  0.00  0.00     0.209 HD
ENDBRANCH  20  21
ENDBRANCH  19  20
BRANCH  19  23
HETATM   23  O   UNK N   1      28.208  19.119   3.965  0.00  0.00    -0.391 OA
HETATM   24  H   UNK N   1      27.386  19.175   3.453  0.00  0.00     0.210 HD
ENDBRANCH  19  23
ENDBRANCH  18  19
ENDBRANCH  17  18
ENDBRANCH  11  17
ENDBRANCH   1   8
BRANCH   4  25
HETATM   25  C   UNK N   1      35.926  15.179  10.338  0.00  0.00     0.023 A 
HETATM   26  C   UNK N   1      35.494  14.940  11.634  0.00  0.00     0.041 A 
HETATM   27  C   UNK N   1      36.141  14.056  12.461  0.00  0.00     0.016 A 
HETATM   28  N   UNK N   1      37.222  13.372  11.991  0.00  0.00    -0.340 N 
HETATM   29  C   UNK N   1      37.672  13.543  10.708  0.00  0.00     0.142 A 
ATOM     30  HN  UNK N   1      37.706  12.719  12.608  1.00  0.00     0.167 HD
HETATM   31  C   UNK N   1      37.032  14.478   9.852  0.00  0.00     0.072 A 
BRANCH  27  32
HETATM   32  C   UNK N   1      35.623  13.931  13.866  0.00  0.00     0.036 C 
HETATM   33  C   UNK N   1      36.731  14.066  14.893  0.00  0.00     0.011 C 
HETATM   34  C   UNK N   1      36.113  13.550  16.170  0.00  0.00     0.001 C 
HETATM   35  C   UNK N   1      35.021  12.578  15.737  0.00  0.00     0.001 C 
HETATM   36  C   UNK N   1      34.963  12.623  14.216  0.00  0.00     0.011 C 
ENDBRANCH  27  32
BRANCH  29  37
HETATM   37  O   UNK N   1      38.737  12.819  10.289  0.00  0.00    -0.341 OA
HETATM   38  C   UNK N   1      39.257  12.903   9.018  0.00  0.00     0.211 C 
ENDBRANCH  29  37
ENDBRANCH   4  25
TORSDOF 11
ENDMDL
MODEL 4
REMARK VINA RESULT:      -7.6      0.951      2.170
REMARK  11 active torsions:
REMARK  status: ('A' for Active; 'I' for Inactive)
REMARK    1  A    between atoms: C_2  and  C_3 
REMARK    2  A    between atoms: C_5  and  C_16 
REMARK    3  A    between atoms: C_8  and  O_9 
REMARK    4  A    between atoms: O_9  and  C_10 
REMARK    5  A    between atoms: C_10  and  C_11 
REMARK    6  A    between atoms: C_11  and  C_12 
REMARK    7  A    between atoms: C_11  and  O_14 
REMARK    8  A    between atoms: C_12  and  O_13 
REMARK    9  A    between atoms: C_19  and  C_23 
REMARK   10  A    between atoms: C_25  and  C_32 
REMARK   11  A    between atoms: C_28  and  O_30 
ROOT
HETATM    1  C   UNK N   1      27.747  19.284   4.627  0.00  0.00     0.138 A 
HETATM    2  N   UNK N   1      26.455  19.162   4.905  0.00  0.00    -0.319 N 
ATOM      3  HN  UNK N   1      26.028  18.644   5.675  1.00  0.00     0.169 HD
HETATM    4  C   UNK N   1      25.843  19.863   3.955  0.00  0.00     0.182 A 
HETATM    5  O   UNK N   1      26.729  20.402   3.143  0.00  0.00    -0.217 OA
HETATM    6  N   UNK N   1      27.934  20.061   3.534  0.00  0.00    -0.242 N 
ATOM      7  HN  UNK N   1      28.821  20.325   3.107  1.00  0.00     0.196 HD
ENDROOT
BRANCH   1   8
HETATM    8  C   UNK N   1      28.715  18.469   5.364  0.00  0.00     0.011 A 
HETATM    9  C   UNK N   1      28.555  18.441   6.748  0.00  0.00     0.025 A 
HETATM   10  C   UNK N   1      29.290  17.610   7.567  0.00  0.00    -0.024 A 
HETATM   11  C   UNK N   1      30.250  16.747   6.988  0.00  0.00     0.081 A 
HETATM   12  C   UNK N   1      30.443  16.790   5.562  0.00  0.00    -0.027 A 
HETATM   13  C   UNK N   1      29.661  17.645   4.768  0.00  0.00     0.025 A 
HETATM   14  C   UNK N   1      31.446  15.948   4.852  0.00  0.00     0.051 C 
BRANCH  10  15
HETATM   15  C   UNK N   1      28.950  17.693   9.039  0.00  0.00     0.037 C 
HETATM   16  C   UNK N   1      29.717  18.688   9.891  0.00  0.00     0.010 C 
ENDBRANCH  10  15
BRANCH  11  17
HETATM   17  O   UNK N   1      30.949  15.922   7.811  0.00  0.00    -0.347 OA
BRANCH  17  18
HETATM   18  C   UNK N   1      32.250  16.094   8.212  0.00  0.00     0.209 C 
BRANCH  18  19
HETATM   19  C   UNK N   1      32.537  15.176   9.376  0.00  0.00     0.166 C 
BRANCH  19  20
HETATM   20  C   UNK N   1      32.656  13.759   8.863  0.00  0.00     0.198 C 
BRANCH  20  21
HETATM   21  O   UNK N   1      32.517  13.753   7.477  0.00  0.00    -0.398 OA
HETATM   22  H   UNK N   1      32.361  14.345   6.725  0.00  0.00     0.209 HD
ENDBRANCH  20  21
ENDBRANCH  19  20
BRANCH  19  23
HETATM   23  O   UNK N   1      31.512  15.265  10.319  0.00  0.00    -0.391 OA
HETATM   24  H   UNK N   1      30.921  14.519  10.507  0.00  0.00     0.210 HD
ENDBRANCH  19  23
ENDBRANCH  18  19
ENDBRANCH  17  18
ENDBRANCH  11  17
ENDBRANCH   1   8
BRANCH   4  25
HETATM   25  C   UNK N   1      24.385  19.778   3.847  0.00  0.00     0.023 A 
HETATM   26  C   UNK N   1      23.813  18.741   4.570  0.00  0.00     0.041 A 
HETATM   27  C   UNK N   1      22.485  18.421   4.446  0.00  0.00     0.016 A 
HETATM   28  N   UNK N   1      21.696  19.156   3.613  0.00  0.00    -0.340 N 
HETATM   29  C   UNK N   1      22.200  20.213   2.901  0.00  0.00     0.142 A 
ATOM     30  HN  UNK N   1      20.709  18.915   3.517  1.00  0.00     0.167 HD
HETATM   31  C   UNK N   1      23.579  20.536   2.995  0.00  0.00     0.072 A 
BRANCH  27  32
HETATM   32  C   UNK N   1      21.993  17.234   5.226  0.00  0.00     0.036 C 
HETATM   33  C   UNK N   1      21.222  17.648   6.464  0.00  0.00     0.011 C 
HETATM   34  C   UNK N   1      21.144  16.386   7.288  0.00  0.00     0.001 C 
HETATM   35  C   UNK N   1      22.351  15.550   6.878  0.00  0.00     0.001 C 
HETATM   36  C   UNK N   1      23.051  16.302   5.754  0.00  0.00     0.011 C 
ENDBRANCH  27  32
BRANCH  29  37
HETATM   37  O   UNK N   1      21.363  20.922   2.107  0.00  0.00    -0.341 OA
HETATM   38  C   UNK N   1      20.961  20.498   0.862  0.00  0.00     0.211 C 
ENDBRANCH  29  37
ENDBRANCH   4  25
TORSDOF 11
ENDMDL
MODEL 5
REMARK VINA RESULT:      -7.5      5.943     10.500
REMARK  11 active torsions:
REMARK  status: ('A' for Active; 'I' for Inactive)
REMARK    1  A    between atoms: C_2  and  C_3 
REMARK    2  A    between atoms: C_5  and  C_16 
REMARK    3  A    between atoms: C_8  and  O_9 
REMARK    4  A    between atoms: O_9  and  C_10 
REMARK    5  A    between atoms: C_10  and  C_11 
REMARK    6  A    between atoms: C_11  and  C_12 
REMARK    7  A    between atoms: C_11  and  O_14 
REMARK    8  A    between atoms: C_12  and  O_13 
REMARK    9  A    between atoms: C_19  and  C_23 
REMARK   10  A    between atoms: C_25  and  C_32 
REMARK   11  A    between atoms: C_28  and  O_30 
ROOT
HETATM    1  C   UNK N   1      35.245  13.789  10.943  0.00  0.00     0.138 A 
HETATM    2  N   UNK N   1      34.784  14.940  10.470  0.00  0.00    -0.319 N 
ATOM      3  HN  UNK N   1      34.590  15.796  10.991  1.00  0.00     0.169 HD
HETATM    4  C   UNK N   1      34.631  14.725   9.166  0.00  0.00     0.182 A 
HETATM    5  O   UNK N   1      34.999  13.498   8.860  0.00  0.00    -0.217 OA
HETATM    6  N   UNK N   1      35.392  12.881   9.949  0.00  0.00    -0.242 N 
ATOM      7  HN  UNK N   1      35.733  11.924  10.030  1.00  0.00     0.196 HD
ENDROOT
BRANCH   1   8
HETATM    8  C   UNK N   1      35.343  13.601  12.393  0.00  0.00     0.011 A 
HETATM    9  C   UNK N   1      34.728  12.458  12.899  0.00  0.00     0.025 A 
HETATM   10  C   UNK N   1      34.854  12.064  14.214  0.00  0.00    -0.024 A 
HETATM   11  C   UNK N   1      35.636  12.847  15.095  0.00  0.00     0.081 A 
HETATM   12  C   UNK N   1      36.251  14.046  14.588  0.00  0.00    -0.027 A 
HETATM   13  C   UNK N   1      36.104  14.400  13.237  0.00  0.00     0.025 A 
HETATM   14  C   UNK N   1      37.069  14.960  15.434  0.00  0.00     0.051 C 
BRANCH  10  15
HETATM   15  C   UNK N   1      34.146  10.775  14.570  0.00  0.00     0.037 C 
HETATM   16  C   UNK N   1      34.975   9.506  14.649  0.00  0.00     0.010 C 
ENDBRANCH  10  15
BRANCH  11  17
HETATM   17  O   UNK N   1      35.763  12.430  16.383  0.00  0.00    -0.347 OA
BRANCH  17  18
HETATM   18  C   UNK N   1      34.876  12.670  17.401  0.00  0.00     0.209 C 
BRANCH  18  19
HETATM   19  C   UNK N   1      35.603  13.326  18.550  0.00  0.00     0.166 C 
BRANCH  19  20
HETATM   20  C   UNK N   1      35.238  12.612  19.830  0.00  0.00     0.198 C 
BRANCH  20  21
HETATM   21  O   UNK N   1      34.522  13.475  20.657  0.00  0.00    -0.398 OA
HETATM   22  H   UNK N   1      33.790  13.487  21.293  0.00  0.00     0.209 HD
ENDBRANCH  20  21
ENDBRANCH  19  20
BRANCH  19  23
HETATM   23  O   UNK N   1      35.253  14.675  18.629  0.00  0.00    -0.391 OA
HETATM   24  H   UNK N   1      34.811  15.134  17.898  0.00  0.00     0.210 HD
ENDBRANCH  19  23
ENDBRANCH  18  19
ENDBRANCH  17  18
ENDBRANCH  11  17
ENDBRANCH   1   8
BRANCH   4  25
HETATM   25  C   UNK N   1      33.946  15.739   8.363  0.00  0.00     0.023 A 
HETATM   26  C   UNK N   1      32.670  16.060   8.804  0.00  0.00     0.041 A 
HETATM   27  C   UNK N   1      31.833  16.865   8.073  0.00  0.00     0.016 A 
HETATM   28  N   UNK N   1      32.273  17.388   6.894  0.00  0.00    -0.340 N 
HETATM   29  C   UNK N   1      33.535  17.133   6.426  0.00  0.00     0.142 A 
ATOM     30  HN  UNK N   1      31.648  17.982   6.348  1.00  0.00     0.167 HD
HETATM   31  C   UNK N   1      34.401  16.276   7.156  0.00  0.00     0.072 A 
BRANCH  27  32
HETATM   32  C   UNK N   1      30.450  17.086   8.618  0.00  0.00     0.036 C 
HETATM   33  C   UNK N   1      29.394  17.007   7.533  0.00  0.00     0.011 C 
HETATM   34  C   UNK N   1      28.166  17.611   8.171  0.00  0.00     0.001 C 
HETATM   35  C   UNK N   1      28.684  18.564   9.242  0.00  0.00     0.001 C 
HETATM   36  C   UNK N   1      30.200  18.421   9.270  0.00  0.00     0.011 C 
ENDBRANCH  27  32
BRANCH  29  37
HETATM   37  O   UNK N   1      33.925  17.699   5.260  0.00  0.00    -0.341 OA
HETATM   38  C   UNK N   1      33.102  17.813   4.163  0.00  0.00     0.211 C 
ENDBRANCH  29  37
ENDBRANCH   4  25
TORSDOF 11
ENDMDL
MODEL 6
REMARK VINA RESULT:      -7.4      5.393      9.955
REMARK  11 active torsions:
REMARK  status: ('A' for Active; 'I' for Inactive)
REMARK    1  A    between atoms: C_2  and  C_3 
REMARK    2  A    between atoms: C_5  and  C_16 
REMARK    3  A    between atoms: C_8  and  O_9 
REMARK    4  A    between atoms: O_9  and  C_10 
REMARK    5  A    between atoms: C_10  and  C_11 
REMARK    6  A    between atoms: C_11  and  C_12 
REMARK    7  A    between atoms: C_11  and  O_14 
REMARK    8  A    between atoms: C_12  and  O_13 
REMARK    9  A    between atoms: C_19  and  C_23 
REMARK   10  A    between atoms: C_25  and  C_32 
REMARK   11  A    between atoms: C_28  and  O_30 
ROOT
HETATM    1  C   UNK N   1      35.141  15.727  11.164  0.00  0.00     0.138 A 
HETATM    2  N   UNK N   1      34.219  15.699  10.210  0.00  0.00    -0.319 N 
ATOM      3  HN  UNK N   1      33.533  14.966  10.025  1.00  0.00     0.169 HD
HETATM    4  C   UNK N   1      34.391  16.841   9.549  0.00  0.00     0.182 A 
HETATM    5  O   UNK N   1      35.368  17.538  10.091  0.00  0.00    -0.217 OA
HETATM    6  N   UNK N   1      35.862  16.871  11.107  0.00  0.00    -0.242 N 
ATOM      7  HN  UNK N   1      36.624  17.154  11.721  1.00  0.00     0.196 HD
ENDROOT
BRANCH   1   8
HETATM    8  C   UNK N   1      35.370  14.524  11.969  0.00  0.00     0.011 A 
HETATM    9  C   UNK N   1      36.017  14.725  13.187  0.00  0.00     0.025 A 
HETATM   10  C   UNK N   1      36.176  13.723  14.121  0.00  0.00    -0.024 A 
HETATM   11  C   UNK N   1      35.667  12.433  13.839  0.00  0.00     0.081 A 
HETATM   12  C   UNK N   1      35.023  12.209  12.571  0.00  0.00    -0.027 A 
HETATM   13  C   UNK N   1      34.874  13.265  11.657  0.00  0.00     0.025 A 
HETATM   14  C   UNK N   1      34.479  10.885  12.158  0.00  0.00     0.051 C 
BRANCH  10  15
HETATM   15  C   UNK N   1      36.869  14.139  15.399  0.00  0.00     0.037 C 
HETATM   16  C   UNK N   1      37.294  15.589  15.538  0.00  0.00     0.010 C 
ENDBRANCH  10  15
BRANCH  11  17
HETATM   17  O   UNK N   1      35.816  11.465  14.781  0.00  0.00    -0.347 OA
BRANCH  17  18
HETATM   18  C   UNK N   1      36.921  10.671  14.955  0.00  0.00     0.209 C 
BRANCH  18  19
HETATM   19  C   UNK N   1      36.837   9.989  16.299  0.00  0.00     0.166 C 
BRANCH  19  20
HETATM   20  C   UNK N   1      36.027   8.722  16.154  0.00  0.00     0.198 C 
BRANCH  20  21
HETATM   21  O   UNK N   1      35.458   8.676  14.883  0.00  0.00    -0.398 OA
HETATM   22  H   UNK N   1      35.049   9.243  14.211  0.00  0.00     0.209 HD
ENDBRANCH  20  21
ENDBRANCH  19  20
BRANCH  19  23
HETATM   23  O   UNK N   1      36.243  10.841  17.231  0.00  0.00    -0.391 OA
HETATM   24  H   UNK N   1      36.444  11.790  17.260  0.00  0.00     0.210 HD
ENDBRANCH  19  23
ENDBRANCH  18  19
ENDBRANCH  17  18
ENDBRANCH  11  17
ENDBRANCH   1   8
BRANCH   4  25
HETATM   25  C   UNK N   1      33.658  17.047   8.299  0.00  0.00     0.023 A 
HETATM   26  C   UNK N   1      32.293  17.242   8.456  0.00  0.00     0.041 A 
HETATM   27  C   UNK N   1      31.440  17.284   7.382  0.00  0.00     0.016 A 
HETATM   28  N   UNK N   1      31.947  17.158   6.123  0.00  0.00    -0.340 N 
HETATM   29  C   UNK N   1      33.290  16.997   5.906  0.00  0.00     0.142 A 
ATOM     30  HN  UNK N   1      31.311  17.183   5.324  1.00  0.00     0.167 HD
HETATM   31  C   UNK N   1      34.181  16.920   7.010  0.00  0.00     0.072 A 
BRANCH  27  32
HETATM   32  C   UNK N   1      29.974  17.431   7.679  0.00  0.00     0.036 C 
HETATM   33  C   UNK N   1      29.190  17.868   6.458  0.00  0.00     0.011 C 
HETATM   34  C   UNK N   1      27.861  18.319   7.016  0.00  0.00     0.001 C 
HETATM   35  C   UNK N   1      28.142  18.750   8.451  0.00  0.00     0.001 C 
HETATM   36  C   UNK N   1      29.609  18.450   8.727  0.00  0.00     0.011 C 
ENDBRANCH  27  32
BRANCH  29  37
HETATM   37  O   UNK N   1      33.738  16.900   4.632  0.00  0.00    -0.341 OA
HETATM   38  C   UNK N   1      32.921  16.610   3.563  0.00  0.00     0.211 C 
ENDBRANCH  29  37
ENDBRANCH   4  25
TORSDOF 11
ENDMDL
MODEL 7
REMARK VINA RESULT:      -7.4      2.884      4.363
REMARK  11 active torsions:
REMARK  status: ('A' for Active; 'I' for Inactive)
REMARK    1  A    between atoms: C_2  and  C_3 
REMARK    2  A    between atoms: C_5  and  C_16 
REMARK    3  A    between atoms: C_8  and  O_9 
REMARK    4  A    between atoms: O_9  and  C_10 
REMARK    5  A    between atoms: C_10  and  C_11 
REMARK    6  A    between atoms: C_11  and  C_12 
REMARK    7  A    between atoms: C_11  and  O_14 
REMARK    8  A    between atoms: C_12  and  O_13 
REMARK    9  A    between atoms: C_19  and  C_23 
REMARK   10  A    between atoms: C_25  and  C_32 
REMARK   11  A    between atoms: C_28  and  O_30 
ROOT
HETATM    1  C   UNK N   1      26.702  16.915   4.891  0.00  0.00     0.138 A 
HETATM    2  N   UNK N   1      25.784  16.784   5.841  0.00  0.00    -0.319 N 
ATOM      3  HN  UNK N   1      25.894  16.946   6.842  1.00  0.00     0.169 HD
HETATM    4  C   UNK N   1      24.691  16.392   5.192  0.00  0.00     0.182 A 
HETATM    5  O   UNK N   1      24.933  16.305   3.900  0.00  0.00    -0.217 OA
HETATM    6  N   UNK N   1      26.185  16.627   3.674  0.00  0.00    -0.242 N 
ATOM      7  HN  UNK N   1      26.664  16.654   2.775  1.00  0.00     0.196 HD
ENDROOT
BRANCH   1   8
HETATM    8  C   UNK N   1      28.097  17.148   5.276  0.00  0.00     0.011 A 
HETATM    9  C   UNK N   1      28.334  17.285   6.642  0.00  0.00     0.025 A 
HETATM   10  C   UNK N   1      29.603  17.362   7.175  0.00  0.00    -0.024 A 
HETATM   11  C   UNK N   1      30.718  17.303   6.306  0.00  0.00     0.081 A 
HETATM   12  C   UNK N   1      30.483  17.191   4.891  0.00  0.00    -0.027 A 
HETATM   13  C   UNK N   1      29.171  17.103   4.396  0.00  0.00     0.025 A 
HETATM   14  C   UNK N   1      31.581  17.152   3.884  0.00  0.00     0.051 C 
BRANCH  10  15
HETATM   15  C   UNK N   1      29.662  17.469   8.683  0.00  0.00     0.037 C 
HETATM   16  C   UNK N   1      28.364  17.713   9.430  0.00  0.00     0.010 C 
ENDBRANCH  10  15
BRANCH  11  17
HETATM   17  O   UNK N   1      31.961  17.361   6.854  0.00  0.00    -0.347 OA
BRANCH  17  18
HETATM   18  C   UNK N   1      32.776  16.291   7.123  0.00  0.00     0.209 C 
BRANCH  18  19
HETATM   19  C   UNK N   1      34.202  16.770   7.249  0.00  0.00     0.166 C 
BRANCH  19  20
HETATM   20  C   UNK N   1      34.479  17.100   8.698  0.00  0.00     0.198 C 
BRANCH  20  21
HETATM   21  O   UNK N   1      33.282  17.115   9.410  0.00  0.00    -0.398 OA
HETATM   22  H   UNK N   1      32.415  17.550   9.432  0.00  0.00     0.209 HD
ENDBRANCH  20  21
ENDBRANCH  19  20
BRANCH  19  23
HETATM   23  O   UNK N   1      34.399  17.897   6.449  0.00  0.00    -0.391 OA
HETATM   24  H   UNK N   1      35.085  18.554   6.649  0.00  0.00     0.210 HD
ENDBRANCH  19  23
ENDBRANCH  18  19
ENDBRANCH  17  18
ENDBRANCH  11  17
ENDBRANCH   1   8
BRANCH   4  25
HETATM   25  C   UNK N   1      23.528  15.962   5.971  0.00  0.00     0.023 A 
HETATM   26  C   UNK N   1      23.794  14.969   6.903  0.00  0.00     0.041 A 
HETATM   27  C   UNK N   1      22.790  14.340   7.595  0.00  0.00     0.016 A 
HETATM   28  N   UNK N   1      21.497  14.716   7.385  0.00  0.00    -0.340 N 
HETATM   29  C   UNK N   1      21.179  15.714   6.501  0.00  0.00     0.142 A 
ATOM     30  HN  UNK N   1      20.750  14.244   7.896  1.00  0.00     0.167 HD
HETATM   31  C   UNK N   1      22.204  16.352   5.754  0.00  0.00     0.072 A 
BRANCH  27  32
HETATM   32  C   UNK N   1      23.193  13.232   8.527  0.00  0.00     0.036 C 
HETATM   33  C   UNK N   1      22.434  13.290   9.839  0.00  0.00     0.011 C 
HETATM   34  C   UNK N   1      23.213  12.377  10.755  0.00  0.00     0.001 C 
HETATM   35  C   UNK N   1      24.640  12.375  10.220  0.00  0.00     0.001 C 
HETATM   36  C   UNK N   1      24.639  13.211   8.947  0.00  0.00     0.011 C 
ENDBRANCH  27  32
BRANCH  29  37
HETATM   37  O   UNK N   1      19.879  16.061   6.351  0.00  0.00    -0.341 OA
HETATM   38  C   UNK N   1      19.187  15.912   5.171  0.00  0.00     0.211 C 
ENDBRANCH  29  37
ENDBRANCH   4  25
TORSDOF 11
ENDMDL
MODEL 8
REMARK VINA RESULT:      -7.4      2.886      4.034
REMARK  11 active torsions:
REMARK  status: ('A' for Active; 'I' for Inactive)
REMARK    1  A    between atoms: C_2  and  C_3 
REMARK    2  A    between atoms: C_5  and  C_16 
REMARK    3  A    between atoms: C_8  and  O_9 
REMARK    4  A    between atoms: O_9  and  C_10 
REMARK    5  A    between atoms: C_10  and  C_11 
REMARK    6  A    between atoms: C_11  and  C_12 
REMARK    7  A    between atoms: C_11  and  O_14 
REMARK    8  A    between atoms: C_12  and  O_13 
REMARK    9  A    between atoms: C_19  and  C_23 
REMARK   10  A    between atoms: C_25  and  C_32 
REMARK   11  A    between atoms: C_28  and  O_30 
ROOT
HETATM    1  C   UNK N   1      29.016  17.265   4.589  0.00  0.00     0.138 A 
HETATM    2  N   UNK N   1      27.761  17.257   5.023  0.00  0.00    -0.319 N 
ATOM      3  HN  UNK N   1      27.423  17.470   5.962  1.00  0.00     0.169 HD
HETATM    4  C   UNK N   1      27.045  16.906   3.958  0.00  0.00     0.182 A 
HETATM    5  O   UNK N   1      27.833  16.725   2.918  0.00  0.00    -0.217 OA
HETATM    6  N   UNK N   1      29.076  16.942   3.276  0.00  0.00    -0.242 N 
ATOM      7  HN  UNK N   1      29.908  16.881   2.691  1.00  0.00     0.196 HD
ENDROOT
BRANCH   1   8
HETATM    8  C   UNK N   1      30.103  17.420   5.558  0.00  0.00     0.011 A 
HETATM    9  C   UNK N   1      29.714  17.570   6.888  0.00  0.00     0.025 A 
HETATM   10  C   UNK N   1      30.614  17.581   7.932  0.00  0.00    -0.024 A 
HETATM   11  C   UNK N   1      31.993  17.436   7.652  0.00  0.00     0.081 A 
HETATM   12  C   UNK N   1      32.408  17.309   6.280  0.00  0.00    -0.027 A 
HETATM   13  C   UNK N   1      31.452  17.291   5.251  0.00  0.00     0.025 A 
HETATM   14  C   UNK N   1      33.835  17.181   5.870  0.00  0.00     0.051 C 
BRANCH  10  15
HETATM   15  C   UNK N   1      30.001  17.716   9.308  0.00  0.00     0.037 C 
HETATM   16  C   UNK N   1      28.506  17.960   9.400  0.00  0.00     0.010 C 
ENDBRANCH  10  15
BRANCH  11  17
HETATM   17  O   UNK N   1      32.862  17.429   8.698  0.00  0.00    -0.347 OA
BRANCH  17  18
HETATM   18  C   UNK N   1      33.508  16.330   9.204  0.00  0.00     0.209 C 
BRANCH  18  19
HETATM   19  C   UNK N   1      34.968  16.659   9.403  0.00  0.00     0.166 C 
BRANCH  19  20
HETATM   20  C   UNK N   1      35.397  16.171  10.767  0.00  0.00     0.198 C 
BRANCH  20  21
HETATM   21  O   UNK N   1      36.787  16.215  10.861  0.00  0.00    -0.398 OA
HETATM   22  H   UNK N   1      37.522  15.903  11.411  0.00  0.00     0.209 HD
ENDBRANCH  20  21
ENDBRANCH  19  20
BRANCH  19  23
HETATM   23  O   UNK N   1      35.166  18.037   9.296  0.00  0.00    -0.391 OA
HETATM   24  H   UNK N   1      34.426  18.664   9.320  0.00  0.00     0.210 HD
ENDBRANCH  19  23
ENDBRANCH  18  19
ENDBRANCH  17  18
ENDBRANCH  11  17
ENDBRANCH   1   8
BRANCH   4  25
HETATM   25  C   UNK N   1      25.622  16.607   4.135  0.00  0.00     0.023 A 
HETATM   26  C   UNK N   1      25.144  15.582   3.332  0.00  0.00     0.041 A 
HETATM   27  C   UNK N   1      23.806  15.289   3.254  0.00  0.00     0.016 A 
HETATM   28  N   UNK N   1      22.922  16.004   4.005  0.00  0.00    -0.340 N 
HETATM   29  C   UNK N   1      23.341  17.006   4.841  0.00  0.00     0.142 A 
ATOM     30  HN  UNK N   1      21.926  15.790   3.943  1.00  0.00     0.167 HD
HETATM   31  C   UNK N   1      24.720  17.341   4.908  0.00  0.00     0.072 A 
BRANCH  27  32
HETATM   32  C   UNK N   1      23.399  14.203   2.299  0.00  0.00     0.036 C 
HETATM   33  C   UNK N   1      24.283  14.168   1.068  0.00  0.00     0.011 C 
HETATM   34  C   UNK N   1      23.519  13.309   0.090  0.00  0.00     0.001 C 
HETATM   35  C   UNK N   1      22.053  13.443   0.481  0.00  0.00     0.001 C 
HETATM   36  C   UNK N   1      22.004  14.301   1.738  0.00  0.00     0.011 C 
ENDBRANCH  27  32
BRANCH  29  37
HETATM   37  O   UNK N   1      22.419  17.667   5.581  0.00  0.00    -0.341 OA
HETATM   38  C   UNK N   1      21.449  18.474   5.034  0.00  0.00     0.211 C 
ENDBRANCH  29  37
ENDBRANCH   4  25
TORSDOF 11
ENDMDL
MODEL 9
REMARK VINA RESULT:      -7.1      8.062     13.089
REMARK  11 active torsions:
REMARK  status: ('A' for Active; 'I' for Inactive)
REMARK    1  A    between atoms: C_2  and  C_3 
REMARK    2  A    between atoms: C_5  and  C_16 
REMARK    3  A    between atoms: C_8  and  O_9 
REMARK    4  A    between atoms: O_9  and  C_10 
REMARK    5  A    between atoms: C_10  and  C_11 
REMARK    6  A    between atoms: C_11  and  C_12 
REMARK    7  A    between atoms: C_11  and  O_14 
REMARK    8  A    between atoms: C_12  and  O_13 
REMARK    9  A    between atoms: C_19  and  C_23 
REMARK   10  A    between atoms: C_25  and  C_32 
REMARK   11  A    between atoms: C_28  and  O_30 
ROOT
HETATM    1  C   UNK N   1      35.876  13.177  13.638  0.00  0.00     0.138 A 
HETATM    2  N   UNK N   1      34.902  12.984  12.757  0.00  0.00    -0.319 N 
ATOM      3  HN  UNK N   1      34.000  12.532  12.912  1.00  0.00     0.169 HD
HETATM    4  C   UNK N   1      35.368  13.512  11.628  0.00  0.00     0.182 A 
HETATM    5  O   UNK N   1      36.568  14.017  11.822  0.00  0.00    -0.217 OA
HETATM    6  N   UNK N   1      36.919  13.826  13.072  0.00  0.00    -0.242 N 
ATOM      7  HN  UNK N   1      37.791  14.107  13.519  1.00  0.00     0.196 HD
ENDROOT
BRANCH   1   8
HETATM    8  C   UNK N   1      35.783  12.540  14.954  0.00  0.00     0.011 A 
HETATM    9  C   UNK N   1      35.657  13.406  16.039  0.00  0.00     0.025 A 
HETATM   10  C   UNK N   1      35.413  12.963  17.322  0.00  0.00    -0.024 A 
HETATM   11  C   UNK N   1      35.286  11.574  17.558  0.00  0.00     0.081 A 
HETATM   12  C   UNK N   1      35.443  10.670  16.448  0.00  0.00    -0.027 A 
HETATM   13  C   UNK N   1      35.679  11.170  15.157  0.00  0.00     0.025 A 
HETATM   14  C   UNK N   1      35.360   9.189  16.588  0.00  0.00     0.051 C 
BRANCH  10  15
HETATM   15  C   UNK N   1      35.269  14.053  18.362  0.00  0.00     0.037 C 
HETATM   16  C   UNK N   1      35.900  15.402  18.070  0.00  0.00     0.010 C 
ENDBRANCH  10  15
BRANCH  11  17
HETATM   17  O   UNK N   1      35.026  11.160  18.826  0.00  0.00    -0.347 OA
BRANCH  17  18
HETATM   18  C   UNK N   1      35.959  10.830  19.775  0.00  0.00     0.209 C 
BRANCH  18  19
HETATM   19  C   UNK N   1      35.391   9.764  20.682  0.00  0.00     0.166 C 
BRANCH  19  20
HETATM   20  C   UNK N   1      33.888   9.749  20.536  0.00  0.00     0.198 C 
BRANCH  20  21
HETATM   21  O   UNK N   1      33.524   8.828  19.556  0.00  0.00    -0.398 OA
HETATM   22  H   UNK N   1      33.050   7.990  19.437  0.00  0.00     0.209 HD
ENDBRANCH  20  21
ENDBRANCH  19  20
BRANCH  19  23
HETATM   23  O   UNK N   1      35.748  10.024  22.006  0.00  0.00    -0.391 OA
HETATM   24  H   UNK N   1      36.669   9.978  22.307  0.00  0.00     0.210 HD
ENDBRANCH  19  23
ENDBRANCH  18  19
ENDBRANCH  17  18
ENDBRANCH  11  17
ENDBRANCH   1   8
BRANCH   4  25
HETATM   25  C   UNK N   1      34.617  13.295  10.390  0.00  0.00     0.023 A 
HETATM   26  C   UNK N   1      34.205  14.458   9.755  0.00  0.00     0.041 A 
HETATM   27  C   UNK N   1      33.354  14.431   8.679  0.00  0.00     0.016 A 
HETATM   28  N   UNK N   1      32.922  13.230   8.199  0.00  0.00    -0.340 N 
HETATM   29  C   UNK N   1      33.324  12.049   8.766  0.00  0.00     0.142 A 
ATOM     30  HN  UNK N   1      32.285  13.210   7.403  1.00  0.00     0.167 HD
HETATM   31  C   UNK N   1      34.179  12.063   9.900  0.00  0.00     0.072 A 
BRANCH  27  32
HETATM   32  C   UNK N   1      32.920  15.755   8.117  0.00  0.00     0.036 C 
HETATM   33  C   UNK N   1      33.978  16.825   8.305  0.00  0.00     0.011 C 
HETATM   34  C   UNK N   1      33.245  18.118   8.040  0.00  0.00     0.001 C 
HETATM   35  C   UNK N   1      31.783  17.838   8.368  0.00  0.00     0.001 C 
HETATM   36  C   UNK N   1      31.682  16.361   8.724  0.00  0.00     0.011 C 
ENDBRANCH  27  32
BRANCH  29  37
HETATM   37  O   UNK N   1      32.881  10.886   8.232  0.00  0.00    -0.341 OA
HETATM   38  C   UNK N   1      33.256  10.434   6.988  0.00  0.00     0.211 C 
ENDBRANCH  29  37
ENDBRANCH   4  25
TORSDOF 11
ENDMDL
