MODEL 1
REMARK VINA RESULT:      -5.7      0.000      0.000
REMARK WARNING: 32 MAX_TORS EXCEEDED!!!
REMARK  42 active torsions:
REMARK  status: ('A' for Active; 'I' for Inactive)
REMARK    1  A    between atoms: C_3  and  C_2 
REMARK    2  A    between atoms: C_2  and  O_97 
REMARK    3  A    between atoms: C_7  and  C_88 
REMARK    4  A    between atoms: C_12  and  N_50 
REMARK    5  A    between atoms: C_16  and  C_43 
REMARK    6  A    between atoms: C_20  and  C_33 
REMARK    7  A    between atoms: C_24  and  C_28 
REMARK    8  A    between atoms: C_28  and  C_29 
REMARK    9  A    between atoms: C_29  and  C_30 
REMARK   10  A    between atoms: C_30  and  C_31 
REMARK   11  A    between atoms: C_31  and  N_32 
REMARK   12  A    between atoms: C_33  and  C_34 
REMARK   13  A    between atoms: C_43  and  C_44 
REMARK       I    between atoms: N_50  and  C_51 
REMARK   14  A    between atoms: C_51  and  C_53 
REMARK   15  A    between atoms: C_53  and  C_54 
REMARK   16  A    between atoms: C_53  and  N_61 
REMARK   17  A    between atoms: C_54  and  C_55 
REMARK       I    between atoms: N_61  and  C_62 
REMARK   18  A    between atoms: C_62  and  C_64 
REMARK   19  A    between atoms: C_64  and  N_65 
REMARK   20  A    between atoms: N_65  and  C_66 
REMARK   21  A    between atoms: N_65  and  C_84 
REMARK   22  A    between atoms: C_66  and  C_67 
REMARK   23  A    between atoms: C_67  and  N_68 
REMARK   24  A    between atoms: N_68  and  C_69 
REMARK   25  A    between atoms: N_68  and  C_80 
REMARK   26  A    between atoms: C_69  and  C_70 
REMARK   27  A    between atoms: C_70  and  N_71 
REMARK   28  A    between atoms: N_71  and  C_72 
REMARK   29  A    between atoms: N_71  and  C_76 
REMARK   30  A    between atoms: C_72  and  C_73 
REMARK   31  A    between atoms: C_73  and  O_75 
REMARK   32  A    between atoms: C_76  and  C_77 
REMARK   33  A    between atoms: C_77  and  O_79 
REMARK   34  A    between atoms: C_80  and  C_81 
REMARK   35  A    between atoms: C_81  and  O_83 
REMARK   36  A    between atoms: C_84  and  C_85 
REMARK   37  A    between atoms: C_85  and  O_87 
REMARK       I    between atoms: C_88  and  N_90 
REMARK   38  A    between atoms: C_91  and  N_90 
REMARK   39  A    between atoms: C_91  and  C_92 
REMARK   40  A    between atoms: C_91  and  C_94 
REMARK   41  A    between atoms: C_92  and  O_93 
REMARK   42  A    between atoms: C_94  and  O_96 
ROOT
HETATM    1  C   UNK N   1      31.715   7.323   6.072  0.00  0.00     0.205 C 
HETATM    2  C   UNK N   1      30.800   7.228   4.894  0.00  0.00     0.243 C 
HETATM    3  O   UNK N   1      30.233   6.176   4.641  0.00  0.00    -0.271 OA
HETATM    4  N   UNK N   1      30.801   8.204   3.970  0.00  0.00    -0.345 N 
HETATM    5  C   UNK N   1      31.239   9.548   4.249  0.00  0.00     0.186 C 
HETATM    6  C   UNK N   1      32.618   9.854   3.657  0.00  0.00     0.120 C 
HETATM    7  S   UNK N   1      32.745   9.869   1.850  0.00  0.00    -0.095 SA
HETATM    8  S   UNK N   1      34.230  11.395   1.970  0.00  0.00    -0.095 SA
HETATM    9  C   UNK N   1      32.998  12.721   1.838  0.00  0.00     0.120 C 
HETATM   10  C   UNK N   1      32.934  13.650   3.050  0.00  0.00     0.186 C 
HETATM   11  C   UNK N   1      33.813  14.875   3.106  0.00  0.00     0.242 C 
HETATM   12  O   UNK N   1      33.714  15.705   2.219  0.00  0.00    -0.271 OA
HETATM   13  N   UNK N   1      34.645  15.128   4.145  0.00  0.00    -0.346 N 
HETATM   14  C   UNK N   1      34.931  14.195   5.222  0.00  0.00     0.180 C 
HETATM   15  C   UNK N   1      35.640  12.974   4.656  0.00  0.00     0.241 C 
HETATM   16  O   UNK N   1      36.227  13.082   3.590  0.00  0.00    -0.271 OA
HETATM   17  N   UNK N   1      35.554  11.742   5.233  0.00  0.00    -0.346 N 
HETATM   18  C   UNK N   1      35.054  11.526   6.570  0.00  0.00     0.181 C 
HETATM   19  C   UNK N   1      33.768  10.713   6.692  0.00  0.00     0.241 C 
HETATM   20  O   UNK N   1      32.818  11.274   7.201  0.00  0.00    -0.271 OA
HETATM   21  N   UNK N   1      33.624   9.385   6.367  0.00  0.00    -0.346 N 
HETATM   22  C   UNK N   1      34.636   8.475   5.854  0.00  0.00     0.176 C 
HETATM   23  C   UNK N   1      34.127   7.107   5.409  0.00  0.00     0.241 C 
HETATM   24  O   UNK N   1      34.927   6.382   4.841  0.00  0.00    -0.271 OA
HETATM   25  N   UNK N   1      32.881   6.609   5.631  0.00  0.00    -0.344 N 
HETATM   26  H   UNK N   1      30.489   7.992   3.061  0.00  0.00     0.163 HD
HETATM   27  H   UNK N   1      35.088  16.006   4.173  0.00  0.00     0.163 HD
HETATM   28  H   UNK N   1      35.848  10.959   4.711  0.00  0.00     0.163 HD
HETATM   29  H   UNK N   1      32.727   9.004   6.497  0.00  0.00     0.163 HD
HETATM   30  H   UNK N   1      32.766   5.645   5.472  0.00  0.00     0.163 HD
ENDROOT
BRANCH  10  31
HETATM   31  N   UNK N   1      32.578  13.063   4.327  0.00  0.00    -0.345 N 
HETATM   32  C   UNK N   1      31.539  13.541   5.063  0.00  0.00     0.241 C 
HETATM   33  O   UNK N   1      31.266  13.029   6.133  0.00  0.00    -0.271 OA
HETATM   34  H   UNK N   1      33.100  12.301   4.668  0.00  0.00     0.163 HD
BRANCH  32  35
HETATM   35  C   UNK N   1      30.649  14.620   4.539  0.00  0.00     0.180 C 
BRANCH  35  36
HETATM   36  C   UNK N   1      31.347  15.983   4.451  0.00  0.00     0.073 C 
BRANCH  36  37
HETATM   37  C   UNK N   1      31.544  16.665   5.774  0.00  0.00    -0.056 A 
HETATM   38  C   UNK N   1      32.755  17.314   6.057  0.00  0.00     0.007 A 
HETATM   39  C   UNK N   1      32.960  17.926   7.293  0.00  0.00     0.001 A 
HETATM   40  C   UNK N   1      31.954  17.883   8.261  0.00  0.00     0.000 A 
HETATM   41  C   UNK N   1      30.748  17.228   7.989  0.00  0.00     0.001 A 
HETATM   42  C   UNK N   1      30.544  16.616   6.748  0.00  0.00     0.007 A 
ENDBRANCH  36  37
ENDBRANCH  35  36
BRANCH  35  43
HETATM   43  N   UNK N   1      30.157  14.166   3.266  0.00  0.00    -0.346 N 
HETATM   44  C   UNK N   1      28.851  13.948   3.069  0.00  0.00     0.235 C 
HETATM   45  O   UNK N   1      28.473  13.541   1.984  0.00  0.00    -0.272 OA
HETATM   46  H   UNK N   1      30.792  14.012   2.529  0.00  0.00     0.163 HD
BRANCH  44  47
HETATM   47  C   UNK N   1      27.877  14.191   4.186  0.00  0.00     0.220 C 
BRANCH  47  48
HETATM   48  N   UNK N   1      26.495  14.303   3.720  0.00  0.00    -0.393 N 
BRANCH  48  49
HETATM   49  C   UNK N   1      25.960  15.659   3.794  0.00  0.00     0.148 C 
BRANCH  49  50
HETATM   50  C   UNK N   1      24.514  15.657   4.288  0.00  0.00     0.292 C 
BRANCH  50  51
HETATM   51  N   UNK N   1      23.561  16.205   3.335  0.00  0.00     0.101 N 
BRANCH  51  52
HETATM   52  C   UNK N   1      22.958  17.454   3.776  0.00  0.00     0.303 C 
BRANCH  52  53
HETATM   53  C   UNK N   1      21.447  17.318   3.688  0.00  0.00     0.304 C 
BRANCH  53  54
HETATM   54  N   UNK N   1      20.926  18.279   2.713  0.00  0.00     0.110 N 
BRANCH  54  55
HETATM   55  C   UNK N   1      19.634  17.864   2.171  0.00  0.00     0.382 C 
BRANCH  55  56
HETATM   56  C   UNK N   1      19.803  17.121   0.877  0.00  0.00     0.169 C 
HETATM   57  O   UNK N   1      20.421  17.623  -0.048  0.00  0.00    -0.649 OA
BRANCH  56  58
HETATM   58  O   UNK N   1      19.292  15.884   0.742  0.00  0.00    -0.775 OA
HETATM   59  H   UNK N   1      18.601  15.334   1.055  0.00  0.00     0.167 HD
ENDBRANCH  56  58
ENDBRANCH  55  56
ENDBRANCH  54  55
BRANCH  54  60
HETATM   60  C   UNK N   1      20.863  19.636   3.264  0.00  0.00     0.382 C 
BRANCH  60  61
HETATM   61  C   UNK N   1      21.539  20.673   2.412  0.00  0.00     0.169 C 
HETATM   62  O   UNK N   1      21.091  20.956   1.313  0.00  0.00    -0.649 OA
BRANCH  61  63
HETATM   63  O   UNK N   1      22.653  21.281   2.860  0.00  0.00    -0.775 OA
HETATM   64  H   UNK N   1      22.661  21.803   3.638  0.00  0.00     0.167 HD
ENDBRANCH  61  63
ENDBRANCH  60  61
ENDBRANCH  54  60
ENDBRANCH  53  54
ENDBRANCH  52  53
ENDBRANCH  51  52
BRANCH  51  65
HETATM   65  C   UNK N   1      22.569  15.237   2.901  0.00  0.00     0.381 C 
BRANCH  65  66
HETATM   66  C   UNK N   1      22.818  14.876   1.460  0.00  0.00     0.169 C 
HETATM   67  O   UNK N   1      21.888  14.534   0.750  0.00  0.00    -0.649 OA
BRANCH  66  68
HETATM   68  O   UNK N   1      24.064  14.912   0.947  0.00  0.00    -0.775 OA
HETATM   69  H   UNK N   1      24.976  14.802   1.138  0.00  0.00     0.167 HD
ENDBRANCH  66  68
ENDBRANCH  65  66
ENDBRANCH  51  65
ENDBRANCH  50  51
ENDBRANCH  49  50
ENDBRANCH  48  49
BRANCH  48  70
HETATM   70  C   UNK N   1      25.584  13.190   4.062  0.00  0.00     0.227 C 
BRANCH  70  71
HETATM   71  C   UNK N   1      25.047  12.400   2.892  0.00  0.00     0.157 C 
HETATM   72  O   UNK N   1      25.448  12.600   1.760  0.00  0.00    -0.649 OA
BRANCH  71  73
HETATM   73  O   UNK N   1      24.063  11.507   3.095  0.00  0.00    -0.775 OA
HETATM   74  H   UNK N   1      23.442  11.599   3.791  0.00  0.00     0.167 HD
ENDBRANCH  71  73
ENDBRANCH  70  71
ENDBRANCH  48  70
ENDBRANCH  47  48
ENDBRANCH  44  47
ENDBRANCH  35  43
ENDBRANCH  32  35
ENDBRANCH  10  31
BRANCH  14  75
HETATM   75  C   UNK N   1      35.678  14.889   6.380  0.00  0.00     0.073 C 
BRANCH  75  76
HETATM   76  C   UNK N   1      34.897  14.864   7.663  0.00  0.00    -0.056 A 
HETATM   77  C   UNK N   1      33.635  14.254   7.701  0.00  0.00     0.007 A 
HETATM   78  C   UNK N   1      32.852  14.330   8.858  0.00  0.00     0.001 A 
HETATM   79  C   UNK N   1      33.325  15.026   9.975  0.00  0.00     0.000 A 
HETATM   80  C   UNK N   1      34.582  15.636   9.938  0.00  0.00     0.001 A 
HETATM   81  C   UNK N   1      35.365  15.563   8.781  0.00  0.00     0.007 A 
ENDBRANCH  75  76
ENDBRANCH  14  75
BRANCH   5  82
HETATM   82  C   UNK N   1      30.092  10.366   3.800  0.00  0.00     0.241 C 
HETATM   83  O   UNK N   1      30.221  11.217   2.937  0.00  0.00    -0.271 OA
HETATM   84  N   UNK N   1      28.874   9.940   4.220  0.00  0.00    -0.350 N 
HETATM   85  H   UNK N   1      28.872   9.446   5.071  0.00  0.00     0.163 HD
BRANCH  84  86
HETATM   86  C   UNK N   1      27.579  10.108   3.601  0.00  0.00     0.136 C 
BRANCH  86  87
HETATM   87  C   UNK N   1      27.534   9.736   2.111  0.00  0.00     0.191 C 
BRANCH  87  88
HETATM   88  O   UNK N   1      27.698  10.844   1.277  0.00  0.00    -0.399 OA
HETATM   89  H   UNK N   1      27.385  11.404   0.550  0.00  0.00     0.209 HD
ENDBRANCH  87  88
ENDBRANCH  86  87
BRANCH  86  90
HETATM   90  C   UNK N   1      26.585   9.291   4.445  0.00  0.00     0.139 C 
HETATM   91  C   UNK N   1      27.146   7.965   4.946  0.00  0.00     0.041 C 
BRANCH  90  92
HETATM   92  O   UNK N   1      25.385   9.082   3.775  0.00  0.00    -0.394 OA
HETATM   93  H   UNK N   1      24.834   8.305   3.954  0.00  0.00     0.210 HD
ENDBRANCH  90  92
ENDBRANCH  86  90
ENDBRANCH  84  86
ENDBRANCH   5  82
BRANCH  18  94
HETATM   94  C   UNK N   1      36.110  10.862   7.406  0.00  0.00     0.075 C 
BRANCH  94  95
HETATM   95  C   UNK N   1      36.895  11.686   8.361  0.00  0.00    -0.028 A 
HETATM   96  C   UNK N   1      38.129  12.308   8.221  0.00  0.00     0.096 A 
HETATM   97  N   UNK N   1      38.403  13.015   9.355  0.00  0.00    -0.365 N 
HETATM   98  C   UNK N   1      37.354  12.822  10.167  0.00  0.00     0.042 A 
HETATM   99  H   UNK N   1      39.206  13.555   9.538  0.00  0.00     0.165 HD
HETATM  100  C   UNK N   1      36.425  12.008   9.597  0.00  0.00    -0.002 A 
HETATM  101  C   UNK N   1      37.149  13.368  11.436  0.00  0.00     0.030 A 
HETATM  102  C   UNK N   1      35.241  11.654  10.228  0.00  0.00     0.014 A 
HETATM  103  C   UNK N   1      35.006  12.176  11.508  0.00  0.00     0.001 A 
HETATM  104  C   UNK N   1      35.955  13.039  12.107  0.00  0.00     0.002 A 
ENDBRANCH  94  95
ENDBRANCH  18  94
BRANCH   1 105
HETATM  105  C   UNK N   1      31.087   6.707   7.337  0.00  0.00     0.146 C 
HETATM  106  C   UNK N   1      31.584   5.298   7.579  0.00  0.00     0.042 C 
BRANCH 105 107
HETATM  107  O   UNK N   1      29.691   6.700   7.265  0.00  0.00    -0.393 OA
HETATM  108  H   UNK N   1      29.141   6.414   8.013  0.00  0.00     0.210 HD
ENDBRANCH 105 107
ENDBRANCH   1 105
BRANCH  22 109
HETATM  109  C   UNK N   1      35.704   8.164   6.905  0.00  0.00     0.035 C 
BRANCH 109 110
HETATM  110  C   UNK N   1      35.139   7.366   8.075  0.00  0.00     0.004 C 
BRANCH 110 111
HETATM  111  C   UNK N   1      35.330   8.099   9.388  0.00  0.00     0.019 C 
BRANCH 111 112
HETATM  112  C   UNK N   1      34.059   8.048  10.218  0.00  0.00     0.111 C 
BRANCH 112 113
HETATM  113  N   UNK N   1      33.026   8.856   9.597  0.00  0.00    -0.430 N 
HETATM  114  H   UNK N   1      32.321   9.530   9.301  0.00  0.00     0.149 HD
HETATM  115  H   UNK N   1      32.910   8.245   8.789  0.00  0.00     0.149 HD
ENDBRANCH 112 113
ENDBRANCH 111 112
ENDBRANCH 110 111
ENDBRANCH 109 110
ENDBRANCH  22 109
TORSDOF 42
ENDMDL
MODEL 2
REMARK VINA RESULT:      -5.7      3.936      9.092
REMARK WARNING: 32 MAX_TORS EXCEEDED!!!
REMARK  42 active torsions:
REMARK  status: ('A' for Active; 'I' for Inactive)
REMARK    1  A    between atoms: C_3  and  C_2 
REMARK    2  A    between atoms: C_2  and  O_97 
REMARK    3  A    between atoms: C_7  and  C_88 
REMARK    4  A    between atoms: C_12  and  N_50 
REMARK    5  A    between atoms: C_16  and  C_43 
REMARK    6  A    between atoms: C_20  and  C_33 
REMARK    7  A    between atoms: C_24  and  C_28 
REMARK    8  A    between atoms: C_28  and  C_29 
REMARK    9  A    between atoms: C_29  and  C_30 
REMARK   10  A    between atoms: C_30  and  C_31 
REMARK   11  A    between atoms: C_31  and  N_32 
REMARK   12  A    between atoms: C_33  and  C_34 
REMARK   13  A    between atoms: C_43  and  C_44 
REMARK       I    between atoms: N_50  and  C_51 
REMARK   14  A    between atoms: C_51  and  C_53 
REMARK   15  A    between atoms: C_53  and  C_54 
REMARK   16  A    between atoms: C_53  and  N_61 
REMARK   17  A    between atoms: C_54  and  C_55 
REMARK       I    between atoms: N_61  and  C_62 
REMARK   18  A    between atoms: C_62  and  C_64 
REMARK   19  A    between atoms: C_64  and  N_65 
REMARK   20  A    between atoms: N_65  and  C_66 
REMARK   21  A    between atoms: N_65  and  C_84 
REMARK   22  A    between atoms: C_66  and  C_67 
REMARK   23  A    between atoms: C_67  and  N_68 
REMARK   24  A    between atoms: N_68  and  C_69 
REMARK   25  A    between atoms: N_68  and  C_80 
REMARK   26  A    between atoms: C_69  and  C_70 
REMARK   27  A    between atoms: C_70  and  N_71 
REMARK   28  A    between atoms: N_71  and  C_72 
REMARK   29  A    between atoms: N_71  and  C_76 
REMARK   30  A    between atoms: C_72  and  C_73 
REMARK   31  A    between atoms: C_73  and  O_75 
REMARK   32  A    between atoms: C_76  and  C_77 
REMARK   33  A    between atoms: C_77  and  O_79 
REMARK   34  A    between atoms: C_80  and  C_81 
REMARK   35  A    between atoms: C_81  and  O_83 
REMARK   36  A    between atoms: C_84  and  C_85 
REMARK   37  A    between atoms: C_85  and  O_87 
REMARK       I    between atoms: C_88  and  N_90 
REMARK   38  A    between atoms: C_91  and  N_90 
REMARK   39  A    between atoms: C_91  and  C_92 
REMARK   40  A    between atoms: C_91  and  C_94 
REMARK   41  A    between atoms: C_92  and  O_93 
REMARK   42  A    between atoms: C_94  and  O_96 
ROOT
HETATM    1  C   UNK N   1      34.060  11.938  -0.198  0.00  0.00     0.205 C 
HETATM    2  C   UNK N   1      34.603  12.599   1.027  0.00  0.00     0.243 C 
HETATM    3  O   UNK N   1      35.802  12.803   1.133  0.00  0.00    -0.271 OA
HETATM    4  N   UNK N   1      33.823  12.730   2.114  0.00  0.00    -0.345 N 
HETATM    5  C   UNK N   1      32.383  12.733   2.050  0.00  0.00     0.186 C 
HETATM    6  C   UNK N   1      31.767  11.421   2.547  0.00  0.00     0.120 C 
HETATM    7  S   UNK N   1      31.987  11.030   4.301  0.00  0.00    -0.095 SA
HETATM    8  S   UNK N   1      30.083  10.068   4.322  0.00  0.00    -0.095 SA
HETATM    9  C   UNK N   1      29.228  11.587   4.826  0.00  0.00     0.120 C 
HETATM   10  C   UNK N   1      28.190  12.092   3.824  0.00  0.00     0.186 C 
HETATM   11  C   UNK N   1      26.763  11.610   3.911  0.00  0.00     0.242 C 
HETATM   12  O   UNK N   1      26.145  11.801   4.944  0.00  0.00    -0.271 OA
HETATM   13  N   UNK N   1      26.117  11.050   2.859  0.00  0.00    -0.346 N 
HETATM   14  C   UNK N   1      26.747  10.682   1.602  0.00  0.00     0.180 C 
HETATM   15  C   UNK N   1      27.767   9.583   1.852  0.00  0.00     0.241 C 
HETATM   16  O   UNK N   1      27.649   8.894   2.855  0.00  0.00    -0.271 OA
HETATM   17  N   UNK N   1      28.866   9.407   1.066  0.00  0.00    -0.346 N 
HETATM   18  C   UNK N   1      29.020  10.025  -0.231  0.00  0.00     0.181 C 
HETATM   19  C   UNK N   1      30.156  11.035  -0.372  0.00  0.00     0.241 C 
HETATM   20  O   UNK N   1      29.838  12.170  -0.668  0.00  0.00    -0.271 OA
HETATM   21  N   UNK N   1      31.498  10.750  -0.291  0.00  0.00    -0.346 N 
HETATM   22  C   UNK N   1      32.126   9.458  -0.064  0.00  0.00     0.176 C 
HETATM   23  C   UNK N   1      33.635   9.490   0.164  0.00  0.00     0.241 C 
HETATM   24  O   UNK N   1      34.161   8.442   0.501  0.00  0.00    -0.271 OA
HETATM   25  N   UNK N   1      34.446  10.565  -0.020  0.00  0.00    -0.344 N 
HETATM   26  H   UNK N   1      34.253  12.827   2.993  0.00  0.00     0.163 HD
HETATM   27  H   UNK N   1      25.152  10.881   2.952  0.00  0.00     0.163 HD
HETATM   28  H   UNK N   1      29.593   8.830   1.398  0.00  0.00     0.163 HD
HETATM   29  H   UNK N   1      32.108  11.514  -0.399  0.00  0.00     0.163 HD
HETATM   30  H   UNK N   1      35.412  10.380  -0.035  0.00  0.00     0.163 HD
ENDROOT
BRANCH  10  31
HETATM   31  N   UNK N   1      28.658  12.460   2.502  0.00  0.00    -0.345 N 
HETATM   32  C   UNK N   1      28.352  13.665   1.950  0.00  0.00     0.241 C 
HETATM   33  O   UNK N   1      28.758  13.944   0.836  0.00  0.00    -0.271 OA
HETATM   34  H   UNK N   1      29.210  11.823   1.992  0.00  0.00     0.163 HD
BRANCH  32  35
HETATM   35  C   UNK N   1      27.614  14.708   2.725  0.00  0.00     0.180 C 
BRANCH  35  36
HETATM   36  C   UNK N   1      28.358  16.048   2.784  0.00  0.00     0.073 C 
BRANCH  36  37
HETATM   37  C   UNK N   1      28.479  16.630   4.162  0.00  0.00    -0.056 A 
HETATM   38  C   UNK N   1      28.388  18.017   4.350  0.00  0.00     0.007 A 
HETATM   39  C   UNK N   1      28.528  18.571   5.621  0.00  0.00     0.001 A 
HETATM   40  C   UNK N   1      28.772  17.739   6.716  0.00  0.00     0.000 A 
HETATM   41  C   UNK N   1      28.876  16.356   6.533  0.00  0.00     0.001 A 
HETATM   42  C   UNK N   1      28.733  15.801   5.257  0.00  0.00     0.007 A 
ENDBRANCH  36  37
ENDBRANCH  35  36
BRANCH  35  43
HETATM   43  N   UNK N   1      26.312  14.821   2.126  0.00  0.00    -0.346 N 
HETATM   44  C   UNK N   1      25.218  14.982   2.880  0.00  0.00     0.235 C 
HETATM   45  O   UNK N   1      24.128  15.051   2.339  0.00  0.00    -0.272 OA
HETATM   46  H   UNK N   1      26.225  14.779   1.146  0.00  0.00     0.163 HD
BRANCH  44  47
HETATM   47  C   UNK N   1      25.346  15.058   4.374  0.00  0.00     0.220 C 
BRANCH  47  48
HETATM   48  N   UNK N   1      24.970  16.366   4.911  0.00  0.00    -0.393 N 
BRANCH  48  49
HETATM   49  C   UNK N   1      23.979  16.297   5.981  0.00  0.00     0.148 C 
BRANCH  49  50
HETATM   50  C   UNK N   1      22.856  15.321   5.633  0.00  0.00     0.292 C 
BRANCH  50  51
HETATM   51  N   UNK N   1      21.557  15.952   5.454  0.00  0.00     0.101 N 
BRANCH  51  52
HETATM   52  C   UNK N   1      21.317  16.401   4.090  0.00  0.00     0.303 C 
BRANCH  52  53
HETATM   53  C   UNK N   1      20.816  17.836   4.136  0.00  0.00     0.304 C 
BRANCH  53  54
HETATM   54  N   UNK N   1      20.615  18.327   2.771  0.00  0.00     0.110 N 
BRANCH  54  55
HETATM   55  C   UNK N   1      19.678  17.492   2.021  0.00  0.00     0.382 C 
BRANCH  55  56
HETATM   56  C   UNK N   1      20.256  17.085   0.696  0.00  0.00     0.169 C 
HETATM   57  O   UNK N   1      20.671  15.950   0.525  0.00  0.00    -0.649 OA
BRANCH  56  58
HETATM   58  O   UNK N   1      20.296  17.968  -0.318  0.00  0.00    -0.775 OA
HETATM   59  H   UNK N   1      20.895  18.466  -0.838  0.00  0.00     0.167 HD
ENDBRANCH  56  58
ENDBRANCH  55  56
ENDBRANCH  54  55
BRANCH  54  60
HETATM   60  C   UNK N   1      20.210  19.735   2.751  0.00  0.00     0.382 C 
BRANCH  60  61
HETATM   61  C   UNK N   1      21.172  20.637   2.031  0.00  0.00     0.169 C 
HETATM   62  O   UNK N   1      21.392  20.480   0.841  0.00  0.00    -0.649 OA
BRANCH  61  63
HETATM   63  O   UNK N   1      21.804  21.614   2.707  0.00  0.00    -0.775 OA
HETATM   64  H   UNK N   1      21.556  21.865   3.575  0.00  0.00     0.167 HD
ENDBRANCH  61  63
ENDBRANCH  60  61
ENDBRANCH  54  60
ENDBRANCH  53  54
ENDBRANCH  52  53
ENDBRANCH  51  52
BRANCH  51  65
HETATM   65  C   UNK N   1      21.289  16.991   6.433  0.00  0.00     0.381 C 
BRANCH  65  66
HETATM   66  C   UNK N   1      20.389  16.446   7.509  0.00  0.00     0.169 C 
HETATM   67  O   UNK N   1      19.278  16.034   7.222  0.00  0.00    -0.649 OA
BRANCH  66  68
HETATM   68  O   UNK N   1      20.792  16.422   8.796  0.00  0.00    -0.775 OA
HETATM   69  H   UNK N   1      20.759  15.942   9.601  0.00  0.00     0.167 HD
ENDBRANCH  66  68
ENDBRANCH  65  66
ENDBRANCH  51  65
ENDBRANCH  50  51
ENDBRANCH  49  50
ENDBRANCH  48  49
BRANCH  48  70
HETATM   70  C   UNK N   1      24.852  17.476   3.943  0.00  0.00     0.227 C 
BRANCH  70  71
HETATM   71  C   UNK N   1      24.563  18.835   4.535  0.00  0.00     0.157 C 
HETATM   72  O   UNK N   1      23.757  19.589   4.019  0.00  0.00    -0.649 OA
BRANCH  71  73
HETATM   73  O   UNK N   1      25.252  19.245   5.613  0.00  0.00    -0.775 OA
HETATM   74  H   UNK N   1      24.905  19.871   6.218  0.00  0.00     0.167 HD
ENDBRANCH  71  73
ENDBRANCH  70  71
ENDBRANCH  48  70
ENDBRANCH  47  48
ENDBRANCH  44  47
ENDBRANCH  35  43
ENDBRANCH  32  35
ENDBRANCH  10  31
BRANCH  14  75
HETATM   75  C   UNK N   1      25.694  10.345   0.526  0.00  0.00     0.073 C 
BRANCH  75  76
HETATM   76  C   UNK N   1      24.374  11.014   0.785  0.00  0.00    -0.056 A 
HETATM   77  C   UNK N   1      24.046  12.198   0.108  0.00  0.00     0.007 A 
HETATM   78  C   UNK N   1      22.873  12.890   0.431  0.00  0.00     0.001 A 
HETATM   79  C   UNK N   1      22.032  12.404   1.436  0.00  0.00     0.000 A 
HETATM   80  C   UNK N   1      22.359  11.225   2.112  0.00  0.00     0.001 A 
HETATM   81  C   UNK N   1      23.532  10.534   1.793  0.00  0.00     0.007 A 
ENDBRANCH  75  76
ENDBRANCH  14  75
BRANCH   5  82
HETATM   82  C   UNK N   1      32.028  13.981   2.760  0.00  0.00     0.241 C 
HETATM   83  O   UNK N   1      31.077  14.026   3.522  0.00  0.00    -0.271 OA
HETATM   84  N   UNK N   1      32.955  14.969   2.700  0.00  0.00    -0.350 N 
HETATM   85  H   UNK N   1      33.529  14.959   1.900  0.00  0.00     0.163 HD
BRANCH  84  86
HETATM   86  C   UNK N   1      33.222  16.035   3.637  0.00  0.00     0.136 C 
BRANCH  86  87
HETATM   87  C   UNK N   1      32.037  16.982   3.878  0.00  0.00     0.191 C 
BRANCH  87  88
HETATM   88  O   UNK N   1      31.527  17.515   2.692  0.00  0.00    -0.399 OA
HETATM   89  H   UNK N   1      30.816  17.961   2.206  0.00  0.00     0.209 HD
ENDBRANCH  87  88
ENDBRANCH  86  87
BRANCH  86  90
HETATM   90  C   UNK N   1      33.715  15.363   4.931  0.00  0.00     0.139 C 
HETATM   91  C   UNK N   1      34.139  16.349   6.015  0.00  0.00     0.041 C 
BRANCH  90  92
HETATM   92  O   UNK N   1      34.735  14.452   4.686  0.00  0.00    -0.394 OA
HETATM   93  H   UNK N   1      35.599  14.530   5.120  0.00  0.00     0.210 HD
ENDBRANCH  90  92
ENDBRANCH  86  90
ENDBRANCH  84  86
ENDBRANCH   5  82
BRANCH  18  94
HETATM   94  C   UNK N   1      29.200   8.965  -1.280  0.00  0.00     0.075 C 
BRANCH  94  95
HETATM   95  C   UNK N   1      28.044   8.103  -1.637  0.00  0.00    -0.028 A 
HETATM   96  C   UNK N   1      27.182   7.364  -0.838  0.00  0.00     0.096 A 
HETATM   97  N   UNK N   1      26.227   6.790  -1.625  0.00  0.00    -0.365 N 
HETATM   98  C   UNK N   1      26.508   7.174  -2.878  0.00  0.00     0.042 A 
HETATM   99  H   UNK N   1      25.484   6.214  -1.332  0.00  0.00     0.165 HD
HETATM  100  C   UNK N   1      27.615   7.963  -2.922  0.00  0.00    -0.002 A 
HETATM  101  C   UNK N   1      25.795   6.873  -4.041  0.00  0.00     0.030 A 
HETATM  102  C   UNK N   1      28.117   8.498  -4.099  0.00  0.00     0.014 A 
HETATM  103  C   UNK N   1      27.432   8.207  -5.288  0.00  0.00     0.001 A 
HETATM  104  C   UNK N   1      26.268   7.403  -5.257  0.00  0.00     0.002 A 
ENDBRANCH  94  95
ENDBRANCH  18  94
BRANCH   1 105
HETATM  105  C   UNK N   1      34.639  12.553  -1.486  0.00  0.00     0.146 C 
HETATM  106  C   UNK N   1      33.588  12.679  -2.568  0.00  0.00     0.042 C 
BRANCH 105 107
HETATM  107  O   UNK N   1      35.716  11.806  -1.972  0.00  0.00    -0.393 OA
HETATM  108  H   UNK N   1      36.608  11.891  -1.599  0.00  0.00     0.210 HD
ENDBRANCH 105 107
ENDBRANCH   1 105
BRANCH  22 109
HETATM  109  C   UNK N   1      31.938   8.518  -1.258  0.00  0.00     0.035 C 
BRANCH 109 110
HETATM  110  C   UNK N   1      32.596   9.062  -2.521  0.00  0.00     0.004 C 
BRANCH 110 111
HETATM  111  C   UNK N   1      31.681   8.929  -3.723  0.00  0.00     0.019 C 
BRANCH 111 112
HETATM  112  C   UNK N   1      31.543  10.262  -4.438  0.00  0.00     0.111 C 
BRANCH 112 113
HETATM  113  N   UNK N   1      30.629  11.124  -3.714  0.00  0.00    -0.430 N 
HETATM  114  H   UNK N   1      30.131  11.819  -3.158  0.00  0.00     0.149 HD
HETATM  115  H   UNK N   1      29.790  10.615  -3.990  0.00  0.00     0.149 HD
ENDBRANCH 112 113
ENDBRANCH 111 112
ENDBRANCH 110 111
ENDBRANCH 109 110
ENDBRANCH  22 109
TORSDOF 42
ENDMDL
MODEL 3
REMARK VINA RESULT:      -5.7      4.647     12.137
REMARK WARNING: 32 MAX_TORS EXCEEDED!!!
REMARK  42 active torsions:
REMARK  status: ('A' for Active; 'I' for Inactive)
REMARK    1  A    between atoms: C_3  and  C_2 
REMARK    2  A    between atoms: C_2  and  O_97 
REMARK    3  A    between atoms: C_7  and  C_88 
REMARK    4  A    between atoms: C_12  and  N_50 
REMARK    5  A    between atoms: C_16  and  C_43 
REMARK    6  A    between atoms: C_20  and  C_33 
REMARK    7  A    between atoms: C_24  and  C_28 
REMARK    8  A    between atoms: C_28  and  C_29 
REMARK    9  A    between atoms: C_29  and  C_30 
REMARK   10  A    between atoms: C_30  and  C_31 
REMARK   11  A    between atoms: C_31  and  N_32 
REMARK   12  A    between atoms: C_33  and  C_34 
REMARK   13  A    between atoms: C_43  and  C_44 
REMARK       I    between atoms: N_50  and  C_51 
REMARK   14  A    between atoms: C_51  and  C_53 
REMARK   15  A    between atoms: C_53  and  C_54 
REMARK   16  A    between atoms: C_53  and  N_61 
REMARK   17  A    between atoms: C_54  and  C_55 
REMARK       I    between atoms: N_61  and  C_62 
REMARK   18  A    between atoms: C_62  and  C_64 
REMARK   19  A    between atoms: C_64  and  N_65 
REMARK   20  A    between atoms: N_65  and  C_66 
REMARK   21  A    between atoms: N_65  and  C_84 
REMARK   22  A    between atoms: C_66  and  C_67 
REMARK   23  A    between atoms: C_67  and  N_68 
REMARK   24  A    between atoms: N_68  and  C_69 
REMARK   25  A    between atoms: N_68  and  C_80 
REMARK   26  A    between atoms: C_69  and  C_70 
REMARK   27  A    between atoms: C_70  and  N_71 
REMARK   28  A    between atoms: N_71  and  C_72 
REMARK   29  A    between atoms: N_71  and  C_76 
REMARK   30  A    between atoms: C_72  and  C_73 
REMARK   31  A    between atoms: C_73  and  O_75 
REMARK   32  A    between atoms: C_76  and  C_77 
REMARK   33  A    between atoms: C_77  and  O_79 
REMARK   34  A    between atoms: C_80  and  C_81 
REMARK   35  A    between atoms: C_81  and  O_83 
REMARK   36  A    between atoms: C_84  and  C_85 
REMARK   37  A    between atoms: C_85  and  O_87 
REMARK       I    between atoms: C_88  and  N_90 
REMARK   38  A    between atoms: C_91  and  N_90 
REMARK   39  A    between atoms: C_91  and  C_92 
REMARK   40  A    between atoms: C_91  and  C_94 
REMARK   41  A    between atoms: C_92  and  O_93 
REMARK   42  A    between atoms: C_94  and  O_96 
ROOT
HETATM    1  C   UNK N   1      32.977  16.068   7.622  0.00  0.00     0.205 C 
HETATM    2  C   UNK N   1      34.300  16.095   8.317  0.00  0.00     0.243 C 
HETATM    3  O   UNK N   1      34.567  17.000   9.092  0.00  0.00    -0.271 OA
HETATM    4  N   UNK N   1      35.287  15.283   7.901  0.00  0.00    -0.345 N 
HETATM    5  C   UNK N   1      35.044  14.062   7.175  0.00  0.00     0.186 C 
HETATM    6  C   UNK N   1      35.376  14.185   5.685  0.00  0.00     0.120 C 
HETATM    7  S   UNK N   1      37.116  14.446   5.256  0.00  0.00    -0.095 SA
HETATM    8  S   UNK N   1      36.838  13.327   3.461  0.00  0.00    -0.095 SA
HETATM    9  C   UNK N   1      37.326  11.770   4.256  0.00  0.00     0.120 C 
HETATM   10  C   UNK N   1      36.235  10.700   4.275  0.00  0.00     0.186 C 
HETATM   11  C   UNK N   1      36.113   9.731   3.124  0.00  0.00     0.242 C 
HETATM   12  O   UNK N   1      37.070   9.029   2.848  0.00  0.00    -0.271 OA
HETATM   13  N   UNK N   1      34.955   9.552   2.443  0.00  0.00    -0.346 N 
HETATM   14  C   UNK N   1      33.766  10.372   2.600  0.00  0.00     0.180 C 
HETATM   15  C   UNK N   1      34.073  11.794   2.157  0.00  0.00     0.241 C 
HETATM   16  O   UNK N   1      35.007  11.978   1.391  0.00  0.00    -0.271 OA
HETATM   17  N   UNK N   1      33.420  12.878   2.662  0.00  0.00    -0.346 N 
HETATM   18  C   UNK N   1      32.194  12.783   3.421  0.00  0.00     0.181 C 
HETATM   19  C   UNK N   1      32.259  13.233   4.878  0.00  0.00     0.241 C 
HETATM   20  O   UNK N   1      31.999  12.392   5.716  0.00  0.00    -0.271 OA
HETATM   21  N   UNK N   1      32.490  14.516   5.312  0.00  0.00    -0.346 N 
HETATM   22  C   UNK N   1      32.711  15.706   4.507  0.00  0.00     0.176 C 
HETATM   23  C   UNK N   1      33.128  16.956   5.278  0.00  0.00     0.241 C 
HETATM   24  O   UNK N   1      33.462  17.924   4.615  0.00  0.00    -0.271 OA
HETATM   25  N   UNK N   1      33.114  17.099   6.630  0.00  0.00    -0.344 N 
HETATM   26  H   UNK N   1      36.217  15.533   8.100  0.00  0.00     0.163 HD
HETATM   27  H   UNK N   1      34.916   8.812   1.794  0.00  0.00     0.163 HD
HETATM   28  H   UNK N   1      33.803  13.772   2.504  0.00  0.00     0.163 HD
HETATM   29  H   UNK N   1      32.507  14.645   6.287  0.00  0.00     0.163 HD
HETATM   30  H   UNK N   1      33.209  18.018   6.969  0.00  0.00     0.163 HD
ENDROOT
BRANCH  10  31
HETATM   31  N   UNK N   1      35.008  11.004   4.984  0.00  0.00    -0.345 N 
HETATM   32  C   UNK N   1      34.549  10.203   5.984  0.00  0.00     0.241 C 
HETATM   33  O   UNK N   1      33.513  10.484   6.559  0.00  0.00    -0.271 OA
HETATM   34  H   UNK N   1      34.496  11.807   4.737  0.00  0.00     0.163 HD
BRANCH  32  35
HETATM   35  C   UNK N   1      35.345   9.037   6.471  0.00  0.00     0.180 C 
BRANCH  35  36
HETATM   36  C   UNK N   1      35.157   7.782   5.609  0.00  0.00     0.073 C 
BRANCH  36  37
HETATM   37  C   UNK N   1      33.827   7.107   5.778  0.00  0.00    -0.056 A 
HETATM   38  C   UNK N   1      33.189   6.526   4.672  0.00  0.00     0.007 A 
HETATM   39  C   UNK N   1      31.941   5.921   4.811  0.00  0.00     0.001 A 
HETATM   40  C   UNK N   1      31.315   5.903   6.060  0.00  0.00     0.000 A 
HETATM   41  C   UNK N   1      31.941   6.492   7.164  0.00  0.00     0.001 A 
HETATM   42  C   UNK N   1      33.195   7.096   7.023  0.00  0.00     0.007 A 
ENDBRANCH  36  37
ENDBRANCH  35  36
BRANCH  35  43
HETATM   43  N   UNK N   1      36.715   9.470   6.530  0.00  0.00    -0.346 N 
HETATM   44  C   UNK N   1      37.593   8.870   7.343  0.00  0.00     0.235 C 
HETATM   45  O   UNK N   1      38.740   9.278   7.385  0.00  0.00    -0.272 OA
HETATM   46  H   UNK N   1      37.011  10.220   5.965  0.00  0.00     0.163 HD
BRANCH  44  47
HETATM   47  C   UNK N   1      37.150   7.719   8.201  0.00  0.00     0.220 C 
BRANCH  47  48
HETATM   48  N   UNK N   1      37.278   7.994   9.632  0.00  0.00    -0.393 N 
BRANCH  48  49
HETATM   49  C   UNK N   1      36.719   9.281  10.033  0.00  0.00     0.148 C 
BRANCH  49  50
HETATM   50  C   UNK N   1      35.193   9.267   9.963  0.00  0.00     0.292 C 
BRANCH  50  51
HETATM   51  N   UNK N   1      34.543   9.987  11.048  0.00  0.00     0.101 N 
BRANCH  51  52
HETATM   52  C   UNK N   1      35.150   9.739  12.348  0.00  0.00     0.303 C 
BRANCH  52  53
HETATM   53  C   UNK N   1      34.339  10.470  13.406  0.00  0.00     0.304 C 
BRANCH  53  54
HETATM   54  N   UNK N   1      35.245  11.064  14.392  0.00  0.00     0.110 N 
BRANCH  54  55
HETATM   55  C   UNK N   1      34.521  11.645  15.520  0.00  0.00     0.382 C 
BRANCH  55  56
HETATM   56  C   UNK N   1      35.120  12.961  15.928  0.00  0.00     0.169 C 
HETATM   57  O   UNK N   1      35.682  13.666  15.105  0.00  0.00    -0.649 OA
BRANCH  56  58
HETATM   58  O   UNK N   1      35.016  13.379  17.202  0.00  0.00    -0.775 OA
HETATM   59  H   UNK N   1      35.002  13.061  18.083  0.00  0.00     0.167 HD
ENDBRANCH  56  58
ENDBRANCH  55  56
ENDBRANCH  54  55
BRANCH  54  60
HETATM   60  C   UNK N   1      36.262  10.110  14.843  0.00  0.00     0.382 C 
BRANCH  60  61
HETATM   61  C   UNK N   1      37.674  10.574  14.623  0.00  0.00     0.169 C 
HETATM   62  O   UNK N   1      38.598   9.778  14.661  0.00  0.00    -0.649 OA
BRANCH  61  63
HETATM   63  O   UNK N   1      37.920  11.877  14.398  0.00  0.00    -0.775 OA
HETATM   64  H   UNK N   1      38.789  12.214  14.298  0.00  0.00     0.167 HD
ENDBRANCH  61  63
ENDBRANCH  60  61
ENDBRANCH  54  60
ENDBRANCH  53  54
ENDBRANCH  52  53
ENDBRANCH  51  52
BRANCH  51  65
HETATM   65  C   UNK N   1      33.102   9.807  11.068  0.00  0.00     0.381 C 
BRANCH  65  66
HETATM   66  C   UNK N   1      32.508  10.381   9.809  0.00  0.00     0.169 C 
HETATM   67  O   UNK N   1      31.709   9.728   9.161  0.00  0.00    -0.649 OA
BRANCH  66  68
HETATM   68  O   UNK N   1      32.862  11.610   9.380  0.00  0.00    -0.775 OA
HETATM   69  H   UNK N   1      33.570  12.219   9.297  0.00  0.00     0.167 HD
ENDBRANCH  66  68
ENDBRANCH  65  66
ENDBRANCH  51  65
ENDBRANCH  50  51
ENDBRANCH  49  50
ENDBRANCH  48  49
BRANCH  48  70
HETATM   70  C   UNK N   1      38.531   7.561  10.285  0.00  0.00     0.227 C 
BRANCH  70  71
HETATM   71  C   UNK N   1      38.506   7.530  11.795  0.00  0.00     0.157 C 
HETATM   72  O   UNK N   1      37.586   7.009  12.399  0.00  0.00    -0.649 OA
BRANCH  71  73
HETATM   73  O   UNK N   1      39.483   8.145  12.483  0.00  0.00    -0.775 OA
HETATM   74  H   UNK N   1      39.328   8.923  12.982  0.00  0.00     0.167 HD
ENDBRANCH  71  73
ENDBRANCH  70  71
ENDBRANCH  48  70
ENDBRANCH  47  48
ENDBRANCH  44  47
ENDBRANCH  35  43
ENDBRANCH  32  35
ENDBRANCH  10  31
BRANCH  14  75
HETATM   75  C   UNK N   1      32.548   9.732   1.903  0.00  0.00     0.073 C 
BRANCH  75  76
HETATM   76  C   UNK N   1      31.482   9.315   2.876  0.00  0.00    -0.056 A 
HETATM   77  C   UNK N   1      30.318   8.688   2.411  0.00  0.00     0.007 A 
HETATM   78  C   UNK N   1      29.271   8.404   3.295  0.00  0.00     0.001 A 
HETATM   79  C   UNK N   1      29.382   8.757   4.643  0.00  0.00     0.000 A 
HETATM   80  C   UNK N   1      30.543   9.384   5.108  0.00  0.00     0.001 A 
HETATM   81  C   UNK N   1      31.588   9.670   4.225  0.00  0.00     0.007 A 
ENDBRANCH  75  76
ENDBRANCH  14  75
BRANCH   5  82
HETATM   82  C   UNK N   1      35.780  13.057   7.971  0.00  0.00     0.241 C 
HETATM   83  O   UNK N   1      36.502  12.232   7.437  0.00  0.00    -0.271 OA
HETATM   84  N   UNK N   1      35.795  13.271   9.311  0.00  0.00    -0.350 N 
HETATM   85  H   UNK N   1      35.021  13.765   9.665  0.00  0.00     0.163 HD
BRANCH  84  86
HETATM   86  C   UNK N   1      36.780  12.880  10.292  0.00  0.00     0.136 C 
BRANCH  86  87
HETATM   87  C   UNK N   1      38.150  13.552  10.122  0.00  0.00     0.191 C 
BRANCH  87  88
HETATM   88  O   UNK N   1      38.050  14.937   9.959  0.00  0.00    -0.399 OA
HETATM   89  H   UNK N   1      37.544  15.760  10.040  0.00  0.00     0.209 HD
ENDBRANCH  87  88
ENDBRANCH  86  87
BRANCH  86  90
HETATM   90  C   UNK N   1      36.153  13.157  11.671  0.00  0.00     0.139 C 
HETATM   91  C   UNK N   1      34.855  13.954  11.608  0.00  0.00     0.041 C 
BRANCH  90  92
HETATM   92  O   UNK N   1      37.052  13.771  12.535  0.00  0.00    -0.394 OA
HETATM   93  H   UNK N   1      37.985  13.883  12.299  0.00  0.00     0.210 HD
ENDBRANCH  90  92
ENDBRANCH  86  90
ENDBRANCH  84  86
ENDBRANCH   5  82
BRANCH  18  94
HETATM   94  C   UNK N   1      31.111  13.565   2.735  0.00  0.00     0.075 C 
BRANCH  94  95
HETATM   95  C   UNK N   1      29.962  12.836   2.141  0.00  0.00    -0.028 A 
HETATM   96  C   UNK N   1      29.733  12.409   0.840  0.00  0.00     0.096 A 
HETATM   97  N   UNK N   1      28.560  11.714   0.799  0.00  0.00    -0.365 N 
HETATM   98  C   UNK N   1      28.087  11.722   2.053  0.00  0.00     0.042 A 
HETATM   99  H   UNK N   1      28.147  11.293   0.011  0.00  0.00     0.165 HD
HETATM  100  C   UNK N   1      28.910  12.408   2.892  0.00  0.00    -0.002 A 
HETATM  101  C   UNK N   1      26.926  11.110   2.529  0.00  0.00     0.030 A 
HETATM  102  C   UNK N   1      28.652  12.562   4.246  0.00  0.00     0.014 A 
HETATM  103  C   UNK N   1      27.488  11.968   4.757  0.00  0.00     0.001 A 
HETATM  104  C   UNK N   1      26.631  11.236   3.901  0.00  0.00     0.002 A 
ENDBRANCH  94  95
ENDBRANCH  18  94
BRANCH   1 105
HETATM  105  C   UNK N   1      31.813  16.335   8.595  0.00  0.00     0.146 C 
HETATM  106  C   UNK N   1      31.466  17.807   8.664  0.00  0.00     0.042 C 
BRANCH 105 107
HETATM  107  O   UNK N   1      32.100  15.868   9.881  0.00  0.00    -0.393 OA
HETATM  108  H   UNK N   1      32.956  15.464  10.099  0.00  0.00     0.210 HD
ENDBRANCH 105 107
ENDBRANCH   1 105
BRANCH  22 109
HETATM  109  C   UNK N   1      31.447  16.125   3.753  0.00  0.00     0.035 C 
BRANCH 109 110
HETATM  110  C   UNK N   1      30.274  16.369   4.696  0.00  0.00     0.004 C 
BRANCH 110 111
HETATM  111  C   UNK N   1      29.007  16.698   3.930  0.00  0.00     0.019 C 
BRANCH 111 112
HETATM  112  C   UNK N   1      28.205  17.761   4.659  0.00  0.00     0.111 C 
BRANCH 112 113
HETATM  113  N   UNK N   1      28.137  18.970   3.859  0.00  0.00    -0.430 N 
HETATM  114  H   UNK N   1      28.265  19.809   3.294  0.00  0.00     0.149 HD
HETATM  115  H   UNK N   1      27.119  19.026   3.870  0.00  0.00     0.149 HD
ENDBRANCH 112 113
ENDBRANCH 111 112
ENDBRANCH 110 111
ENDBRANCH 109 110
ENDBRANCH  22 109
TORSDOF 42
ENDMDL
MODEL 4
REMARK VINA RESULT:      -5.6      1.447      2.091
REMARK WARNING: 32 MAX_TORS EXCEEDED!!!
REMARK  42 active torsions:
REMARK  status: ('A' for Active; 'I' for Inactive)
REMARK    1  A    between atoms: C_3  and  C_2 
REMARK    2  A    between atoms: C_2  and  O_97 
REMARK    3  A    between atoms: C_7  and  C_88 
REMARK    4  A    between atoms: C_12  and  N_50 
REMARK    5  A    between atoms: C_16  and  C_43 
REMARK    6  A    between atoms: C_20  and  C_33 
REMARK    7  A    between atoms: C_24  and  C_28 
REMARK    8  A    between atoms: C_28  and  C_29 
REMARK    9  A    between atoms: C_29  and  C_30 
REMARK   10  A    between atoms: C_30  and  C_31 
REMARK   11  A    between atoms: C_31  and  N_32 
REMARK   12  A    between atoms: C_33  and  C_34 
REMARK   13  A    between atoms: C_43  and  C_44 
REMARK       I    between atoms: N_50  and  C_51 
REMARK   14  A    between atoms: C_51  and  C_53 
REMARK   15  A    between atoms: C_53  and  C_54 
REMARK   16  A    between atoms: C_53  and  N_61 
REMARK   17  A    between atoms: C_54  and  C_55 
REMARK       I    between atoms: N_61  and  C_62 
REMARK   18  A    between atoms: C_62  and  C_64 
REMARK   19  A    between atoms: C_64  and  N_65 
REMARK   20  A    between atoms: N_65  and  C_66 
REMARK   21  A    between atoms: N_65  and  C_84 
REMARK   22  A    between atoms: C_66  and  C_67 
REMARK   23  A    between atoms: C_67  and  N_68 
REMARK   24  A    between atoms: N_68  and  C_69 
REMARK   25  A    between atoms: N_68  and  C_80 
REMARK   26  A    between atoms: C_69  and  C_70 
REMARK   27  A    between atoms: C_70  and  N_71 
REMARK   28  A    between atoms: N_71  and  C_72 
REMARK   29  A    between atoms: N_71  and  C_76 
REMARK   30  A    between atoms: C_72  and  C_73 
REMARK   31  A    between atoms: C_73  and  O_75 
REMARK   32  A    between atoms: C_76  and  C_77 
REMARK   33  A    between atoms: C_77  and  O_79 
REMARK   34  A    between atoms: C_80  and  C_81 
REMARK   35  A    between atoms: C_81  and  O_83 
REMARK   36  A    between atoms: C_84  and  C_85 
REMARK   37  A    between atoms: C_85  and  O_87 
REMARK       I    between atoms: C_88  and  N_90 
REMARK   38  A    between atoms: C_91  and  N_90 
REMARK   39  A    between atoms: C_91  and  C_92 
REMARK   40  A    between atoms: C_91  and  C_94 
REMARK   41  A    between atoms: C_92  and  O_93 
REMARK   42  A    between atoms: C_94  and  O_96 
ROOT
HETATM    1  C   UNK N   1      31.470   7.440   5.853  0.00  0.00     0.205 C 
HETATM    2  C   UNK N   1      30.551   7.397   4.675  0.00  0.00     0.243 C 
HETATM    3  O   UNK N   1      29.949   6.369   4.405  0.00  0.00    -0.271 OA
HETATM    4  N   UNK N   1      30.584   8.389   3.768  0.00  0.00    -0.345 N 
HETATM    5  C   UNK N   1      31.068   9.712   4.070  0.00  0.00     0.186 C 
HETATM    6  C   UNK N   1      32.456   9.982   3.482  0.00  0.00     0.120 C 
HETATM    7  S   UNK N   1      32.581  10.025   1.675  0.00  0.00    -0.095 SA
HETATM    8  S   UNK N   1      34.117  11.498   1.820  0.00  0.00    -0.095 SA
HETATM    9  C   UNK N   1      32.930  12.867   1.713  0.00  0.00     0.120 C 
HETATM   10  C   UNK N   1      32.898  13.775   2.941  0.00  0.00     0.186 C 
HETATM   11  C   UNK N   1      33.818  14.969   3.017  0.00  0.00     0.242 C 
HETATM   12  O   UNK N   1      33.746  15.818   2.146  0.00  0.00    -0.271 OA
HETATM   13  N   UNK N   1      34.660  15.175   4.060  0.00  0.00    -0.346 N 
HETATM   14  C   UNK N   1      34.915  14.214   5.120  0.00  0.00     0.180 C 
HETATM   15  C   UNK N   1      35.582  12.980   4.531  0.00  0.00     0.241 C 
HETATM   16  O   UNK N   1      36.171  13.087   3.466  0.00  0.00    -0.271 OA
HETATM   17  N   UNK N   1      35.455  11.742   5.086  0.00  0.00    -0.346 N 
HETATM   18  C   UNK N   1      34.949  11.519   6.421  0.00  0.00     0.181 C 
HETATM   19  C   UNK N   1      33.636  10.747   6.529  0.00  0.00     0.241 C 
HETATM   20  O   UNK N   1      32.706  11.331   7.050  0.00  0.00    -0.271 OA
HETATM   21  N   UNK N   1      33.447   9.432   6.182  0.00  0.00    -0.346 N 
HETATM   22  C   UNK N   1      34.428   8.497   5.651  0.00  0.00     0.176 C 
HETATM   23  C   UNK N   1      33.872   7.155   5.182  0.00  0.00     0.241 C 
HETATM   24  O   UNK N   1      34.647   6.414   4.600  0.00  0.00    -0.271 OA
HETATM   25  N   UNK N   1      32.611   6.696   5.398  0.00  0.00    -0.344 N 
HETATM   26  H   UNK N   1      30.265   8.203   2.856  0.00  0.00     0.163 HD
HETATM   27  H   UNK N   1      35.132  16.038   4.103  0.00  0.00     0.163 HD
HETATM   28  H   UNK N   1      35.722  10.959   4.550  0.00  0.00     0.163 HD
HETATM   29  H   UNK N   1      32.538   9.078   6.307  0.00  0.00     0.163 HD
HETATM   30  H   UNK N   1      32.463   5.739   5.222  0.00  0.00     0.163 HD
ENDROOT
BRANCH  10  31
HETATM   31  N   UNK N   1      32.524  13.178   4.208  0.00  0.00    -0.345 N 
HETATM   32  C   UNK N   1      31.514  13.689   4.963  0.00  0.00     0.241 C 
HETATM   33  O   UNK N   1      31.225  13.167   6.025  0.00  0.00    -0.271 OA
HETATM   34  H   UNK N   1      33.011  12.385   4.529  0.00  0.00     0.163 HD
BRANCH  32  35
HETATM   35  C   UNK N   1      30.673  14.821   4.470  0.00  0.00     0.180 C 
BRANCH  35  36
HETATM   36  C   UNK N   1      31.408  16.167   4.489  0.00  0.00     0.073 C 
BRANCH  36  37
HETATM   37  C   UNK N   1      31.555  16.774   5.854  0.00  0.00    -0.056 A 
HETATM   38  C   UNK N   1      32.741  17.435   6.206  0.00  0.00     0.007 A 
HETATM   39  C   UNK N   1      32.899  17.977   7.480  0.00  0.00     0.001 A 
HETATM   40  C   UNK N   1      31.872  17.852   8.418  0.00  0.00     0.000 A 
HETATM   41  C   UNK N   1      30.691  17.184   8.077  0.00  0.00     0.001 A 
HETATM   42  C   UNK N   1      30.533  16.642   6.798  0.00  0.00     0.007 A 
ENDBRANCH  36  37
ENDBRANCH  35  36
BRANCH  35  43
HETATM   43  N   UNK N   1      30.221  14.454   3.155  0.00  0.00    -0.346 N 
HETATM   44  C   UNK N   1      28.915  14.386   2.868  0.00  0.00     0.235 C 
HETATM   45  O   UNK N   1      28.568  14.049   1.750  0.00  0.00    -0.272 OA
HETATM   46  H   UNK N   1      30.883  14.250   2.455  0.00  0.00     0.163 HD
BRANCH  44  47
HETATM   47  C   UNK N   1      27.901  14.708   3.928  0.00  0.00     0.220 C 
BRANCH  47  48
HETATM   48  N   UNK N   1      26.768  15.478   3.416  0.00  0.00    -0.393 N 
BRANCH  48  49
HETATM   49  C   UNK N   1      26.759  16.870   3.857  0.00  0.00     0.148 C 
BRANCH  49  50
HETATM   50  C   UNK N   1      25.549  17.618   3.301  0.00  0.00     0.292 C 
BRANCH  50  51
HETATM   51  N   UNK N   1      24.823  18.393   4.296  0.00  0.00     0.101 N 
BRANCH  51  52
HETATM   52  C   UNK N   1      23.651  17.705   4.819  0.00  0.00     0.303 C 
BRANCH  52  53
HETATM   53  C   UNK N   1      22.493  17.927   3.860  0.00  0.00     0.304 C 
BRANCH  53  54
HETATM   54  N   UNK N   1      21.227  17.742   4.572  0.00  0.00     0.110 N 
BRANCH  54  55
HETATM   55  C   UNK N   1      20.181  17.210   3.701  0.00  0.00     0.382 C 
BRANCH  55  56
HETATM   56  C   UNK N   1      19.590  18.291   2.841  0.00  0.00     0.169 C 
HETATM   57  O   UNK N   1      19.771  19.466   3.114  0.00  0.00    -0.649 OA
BRANCH  56  58
HETATM   58  O   UNK N   1      18.876  17.964   1.749  0.00  0.00    -0.775 OA
HETATM   59  H   UNK N   1      18.632  18.288   0.905  0.00  0.00     0.167 HD
ENDBRANCH  56  58
ENDBRANCH  55  56
ENDBRANCH  54  55
BRANCH  54  60
HETATM   60  C   UNK N   1      21.391  16.919   5.774  0.00  0.00     0.382 C 
BRANCH  60  61
HETATM   61  C   UNK N   1      20.793  17.522   7.013  0.00  0.00     0.169 C 
HETATM   62  O   UNK N   1      20.173  16.826   7.801  0.00  0.00    -0.649 OA
BRANCH  61  63
HETATM   63  O   UNK N   1      20.930  18.840   7.246  0.00  0.00    -0.775 OA
HETATM   64  H   UNK N   1      21.758  19.230   7.450  0.00  0.00     0.167 HD
ENDBRANCH  61  63
ENDBRANCH  60  61
ENDBRANCH  54  60
ENDBRANCH  53  54
ENDBRANCH  52  53
ENDBRANCH  51  52
BRANCH  51  65
HETATM   65  C   UNK N   1      24.519  19.743   3.856  0.00  0.00     0.381 C 
BRANCH  65  66
HETATM   66  C   UNK N   1      25.799  20.457   3.510  0.00  0.00     0.169 C 
HETATM   67  O   UNK N   1      26.668  20.592   4.354  0.00  0.00    -0.649 OA
BRANCH  66  68
HETATM   68  O   UNK N   1      25.990  20.965   2.276  0.00  0.00    -0.775 OA
HETATM   69  H   UNK N   1      26.631  21.194   1.631  0.00  0.00     0.167 HD
ENDBRANCH  66  68
ENDBRANCH  65  66
ENDBRANCH  51  65
ENDBRANCH  50  51
ENDBRANCH  49  50
ENDBRANCH  48  49
BRANCH  48  70
HETATM   70  C   UNK N   1      25.468  14.780   3.336  0.00  0.00     0.227 C 
BRANCH  70  71
HETATM   71  C   UNK N   1      25.134  14.169   1.995  0.00  0.00     0.157 C 
HETATM   72  O   UNK N   1      24.306  14.677   1.260  0.00  0.00    -0.649 OA
BRANCH  71  73
HETATM   73  O   UNK N   1      25.713  13.011   1.635  0.00  0.00    -0.775 OA
HETATM   74  H   UNK N   1      26.386  12.971   0.984  0.00  0.00     0.167 HD
ENDBRANCH  71  73
ENDBRANCH  70  71
ENDBRANCH  48  70
ENDBRANCH  47  48
ENDBRANCH  44  47
ENDBRANCH  35  43
ENDBRANCH  32  35
ENDBRANCH  10  31
BRANCH  14  75
HETATM   75  C   UNK N   1      35.686  14.862   6.289  0.00  0.00     0.073 C 
BRANCH  75  76
HETATM   76  C   UNK N   1      34.860  14.952   7.541  0.00  0.00    -0.056 A 
HETATM   77  C   UNK N   1      35.380  15.592   8.676  0.00  0.00     0.007 A 
HETATM   78  C   UNK N   1      34.667  15.576   9.879  0.00  0.00     0.001 A 
HETATM   79  C   UNK N   1      33.439  14.913   9.953  0.00  0.00     0.000 A 
HETATM   80  C   UNK N   1      32.920  14.273   8.823  0.00  0.00     0.001 A 
HETATM   81  C   UNK N   1      33.633  14.286   7.620  0.00  0.00     0.007 A 
ENDBRANCH  75  76
ENDBRANCH  14  75
BRANCH   5  82
HETATM   82  C   UNK N   1      29.948  10.576   3.638  0.00  0.00     0.241 C 
HETATM   83  O   UNK N   1      30.146  11.595   2.999  0.00  0.00    -0.271 OA
HETATM   84  N   UNK N   1      28.710  10.038   3.777  0.00  0.00    -0.350 N 
HETATM   85  H   UNK N   1      28.620   9.374   4.498  0.00  0.00     0.163 HD
BRANCH  84  86
HETATM   86  C   UNK N   1      27.506  10.299   3.024  0.00  0.00     0.136 C 
BRANCH  86  87
HETATM   87  C   UNK N   1      27.649  10.103   1.507  0.00  0.00     0.191 C 
BRANCH  87  88
HETATM   88  O   UNK N   1      27.973  11.289   0.842  0.00  0.00    -0.399 OA
HETATM   89  H   UNK N   1      27.724  12.168   0.519  0.00  0.00     0.209 HD
ENDBRANCH  87  88
ENDBRANCH  86  87
BRANCH  86  90
HETATM   90  C   UNK N   1      26.410   9.408   3.634  0.00  0.00     0.139 C 
HETATM   91  C   UNK N   1      26.915   8.469   4.724  0.00  0.00     0.041 C 
BRANCH  90  92
HETATM   92  O   UNK N   1      25.725   8.689   2.661  0.00  0.00    -0.394 OA
HETATM   93  H   UNK N   1      26.177   8.047   2.093  0.00  0.00     0.210 HD
ENDBRANCH  90  92
ENDBRANCH  86  90
ENDBRANCH  84  86
ENDBRANCH   5  82
BRANCH  18  94
HETATM   94  C   UNK N   1      35.983  10.806   7.243  0.00  0.00     0.075 C 
BRANCH  94  95
HETATM   95  C   UNK N   1      36.844  11.595   8.160  0.00  0.00    -0.028 A 
HETATM   96  C   UNK N   1      38.090  12.175   7.961  0.00  0.00     0.096 A 
HETATM   97  N   UNK N   1      38.446  12.865   9.082  0.00  0.00    -0.365 N 
HETATM   98  C   UNK N   1      37.433  12.704   9.945  0.00  0.00     0.042 A 
HETATM   99  H   UNK N   1      39.275  13.375   9.227  0.00  0.00     0.165 HD
HETATM  100  C   UNK N   1      36.449  11.926   9.420  0.00  0.00    -0.002 A 
HETATM  101  C   UNK N   1      37.311  13.249  11.225  0.00  0.00     0.030 A 
HETATM  102  C   UNK N   1      35.286  11.609  10.108  0.00  0.00     0.014 A 
HETATM  103  C   UNK N   1      35.134  12.132  11.401  0.00  0.00     0.001 A 
HETATM  104  C   UNK N   1      36.141  12.957  11.954  0.00  0.00     0.002 A 
ENDBRANCH  94  95
ENDBRANCH  18  94
BRANCH   1 105
HETATM  105  C   UNK N   1      30.823   6.824   7.107  0.00  0.00     0.146 C 
HETATM  106  C   UNK N   1      31.294   5.405   7.341  0.00  0.00     0.042 C 
BRANCH 105 107
HETATM  107  O   UNK N   1      29.427   6.840   7.026  0.00  0.00    -0.393 OA
HETATM  108  H   UNK N   1      28.905   7.598   7.335  0.00  0.00     0.210 HD
ENDBRANCH 105 107
ENDBRANCH   1 105
BRANCH  22 109
HETATM  109  C   UNK N   1      35.486   8.132   6.695  0.00  0.00     0.035 C 
BRANCH 109 110
HETATM  110  C   UNK N   1      34.920   7.240   7.794  0.00  0.00     0.004 C 
BRANCH 110 111
HETATM  111  C   UNK N   1      34.710   8.013   9.081  0.00  0.00     0.019 C 
BRANCH 111 112
HETATM  112  C   UNK N   1      33.241   8.024   9.463  0.00  0.00     0.111 C 
BRANCH 112 113
HETATM  113  N   UNK N   1      33.016   8.958  10.551  0.00  0.00    -0.430 N 
HETATM  114  H   UNK N   1      33.015   9.679  11.271  0.00  0.00     0.149 HD
HETATM  115  H   UNK N   1      32.102   8.580  10.803  0.00  0.00     0.149 HD
ENDBRANCH 112 113
ENDBRANCH 111 112
ENDBRANCH 110 111
ENDBRANCH 109 110
ENDBRANCH  22 109
TORSDOF 42
ENDMDL
MODEL 5
REMARK VINA RESULT:      -5.6      4.528     12.807
REMARK WARNING: 32 MAX_TORS EXCEEDED!!!
REMARK  42 active torsions:
REMARK  status: ('A' for Active; 'I' for Inactive)
REMARK    1  A    between atoms: C_3  and  C_2 
REMARK    2  A    between atoms: C_2  and  O_97 
REMARK    3  A    between atoms: C_7  and  C_88 
REMARK    4  A    between atoms: C_12  and  N_50 
REMARK    5  A    between atoms: C_16  and  C_43 
REMARK    6  A    between atoms: C_20  and  C_33 
REMARK    7  A    between atoms: C_24  and  C_28 
REMARK    8  A    between atoms: C_28  and  C_29 
REMARK    9  A    between atoms: C_29  and  C_30 
REMARK   10  A    between atoms: C_30  and  C_31 
REMARK   11  A    between atoms: C_31  and  N_32 
REMARK   12  A    between atoms: C_33  and  C_34 
REMARK   13  A    between atoms: C_43  and  C_44 
REMARK       I    between atoms: N_50  and  C_51 
REMARK   14  A    between atoms: C_51  and  C_53 
REMARK   15  A    between atoms: C_53  and  C_54 
REMARK   16  A    between atoms: C_53  and  N_61 
REMARK   17  A    between atoms: C_54  and  C_55 
REMARK       I    between atoms: N_61  and  C_62 
REMARK   18  A    between atoms: C_62  and  C_64 
REMARK   19  A    between atoms: C_64  and  N_65 
REMARK   20  A    between atoms: N_65  and  C_66 
REMARK   21  A    between atoms: N_65  and  C_84 
REMARK   22  A    between atoms: C_66  and  C_67 
REMARK   23  A    between atoms: C_67  and  N_68 
REMARK   24  A    between atoms: N_68  and  C_69 
REMARK   25  A    between atoms: N_68  and  C_80 
REMARK   26  A    between atoms: C_69  and  C_70 
REMARK   27  A    between atoms: C_70  and  N_71 
REMARK   28  A    between atoms: N_71  and  C_72 
REMARK   29  A    between atoms: N_71  and  C_76 
REMARK   30  A    between atoms: C_72  and  C_73 
REMARK   31  A    between atoms: C_73  and  O_75 
REMARK   32  A    between atoms: C_76  and  C_77 
REMARK   33  A    between atoms: C_77  and  O_79 
REMARK   34  A    between atoms: C_80  and  C_81 
REMARK   35  A    between atoms: C_81  and  O_83 
REMARK   36  A    between atoms: C_84  and  C_85 
REMARK   37  A    between atoms: C_85  and  O_87 
REMARK       I    between atoms: C_88  and  N_90 
REMARK   38  A    between atoms: C_91  and  N_90 
REMARK   39  A    between atoms: C_91  and  C_92 
REMARK   40  A    between atoms: C_91  and  C_94 
REMARK   41  A    between atoms: C_92  and  O_93 
REMARK   42  A    between atoms: C_94  and  O_96 
ROOT
HETATM    1  C   UNK N   1      32.597  16.441   7.564  0.00  0.00     0.205 C 
HETATM    2  C   UNK N   1      33.854  16.464   8.371  0.00  0.00     0.243 C 
HETATM    3  O   UNK N   1      34.098  17.415   9.098  0.00  0.00    -0.271 OA
HETATM    4  N   UNK N   1      34.832  15.581   8.107  0.00  0.00    -0.345 N 
HETATM    5  C   UNK N   1      34.592  14.319   7.454  0.00  0.00     0.186 C 
HETATM    6  C   UNK N   1      35.058  14.311   5.995  0.00  0.00     0.120 C 
HETATM    7  S   UNK N   1      36.840  14.462   5.708  0.00  0.00    -0.095 SA
HETATM    8  S   UNK N   1      36.663  13.220   3.982  0.00  0.00    -0.095 SA
HETATM    9  C   UNK N   1      37.002  11.711   4.931  0.00  0.00     0.120 C 
HETATM   10  C   UNK N   1      35.862  10.693   4.929  0.00  0.00     0.186 C 
HETATM   11  C   UNK N   1      35.792   9.643   3.847  0.00  0.00     0.242 C 
HETATM   12  O   UNK N   1      36.734   8.881   3.712  0.00  0.00    -0.271 OA
HETATM   13  N   UNK N   1      34.690   9.461   3.079  0.00  0.00    -0.346 N 
HETATM   14  C   UNK N   1      33.535  10.342   3.068  0.00  0.00     0.180 C 
HETATM   15  C   UNK N   1      33.949  11.711   2.550  0.00  0.00     0.241 C 
HETATM   16  O   UNK N   1      34.954  11.794   1.860  0.00  0.00    -0.271 OA
HETATM   17  N   UNK N   1      33.310  12.858   2.913  0.00  0.00    -0.346 N 
HETATM   18  C   UNK N   1      32.019  12.875   3.562  0.00  0.00     0.181 C 
HETATM   19  C   UNK N   1      31.980  13.434   4.982  0.00  0.00     0.241 C 
HETATM   20  O   UNK N   1      31.606  12.673   5.853  0.00  0.00    -0.271 OA
HETATM   21  N   UNK N   1      32.235  14.736   5.340  0.00  0.00    -0.346 N 
HETATM   22  C   UNK N   1      32.585  15.849   4.472  0.00  0.00     0.176 C 
HETATM   23  C   UNK N   1      32.995  17.136   5.184  0.00  0.00     0.241 C 
HETATM   24  O   UNK N   1      33.433  18.035   4.484  0.00  0.00    -0.271 OA
HETATM   25  N   UNK N   1      32.871  17.384   6.515  0.00  0.00    -0.344 N 
HETATM   26  H   UNK N   1      35.753  15.805   8.370  0.00  0.00     0.163 HD
HETATM   27  H   UNK N   1      34.672   8.676   2.485  0.00  0.00     0.163 HD
HETATM   28  H   UNK N   1      33.750  13.719   2.724  0.00  0.00     0.163 HD
HETATM   29  H   UNK N   1      32.174  14.939   6.300  0.00  0.00     0.163 HD
HETATM   30  H   UNK N   1      32.982  18.322   6.792  0.00  0.00     0.163 HD
ENDROOT
BRANCH  10  31
HETATM   31  N   UNK N   1      34.595  11.104   5.501  0.00  0.00    -0.345 N 
HETATM   32  C   UNK N   1      34.028  10.424   6.534  0.00  0.00     0.241 C 
HETATM   33  O   UNK N   1      32.961  10.792   6.990  0.00  0.00    -0.271 OA
HETATM   34  H   UNK N   1      34.134  11.891   5.132  0.00  0.00     0.163 HD
BRANCH  32  35
HETATM   35  C   UNK N   1      34.739   9.292   7.200  0.00  0.00     0.180 C 
BRANCH  35  36
HETATM   36  C   UNK N   1      34.808   8.032   6.328  0.00  0.00     0.073 C 
BRANCH  36  37
HETATM   37  C   UNK N   1      33.502   7.311   6.173  0.00  0.00    -0.056 A 
HETATM   38  C   UNK N   1      33.123   6.801   4.922  0.00  0.00     0.007 A 
HETATM   39  C   UNK N   1      31.899   6.154   4.761  0.00  0.00     0.001 A 
HETATM   40  C   UNK N   1      31.037   6.023   5.851  0.00  0.00     0.000 A 
HETATM   41  C   UNK N   1      31.402   6.540   7.099  0.00  0.00     0.001 A 
HETATM   42  C   UNK N   1      32.632   7.186   7.260  0.00  0.00     0.007 A 
ENDBRANCH  36  37
ENDBRANCH  35  36
BRANCH  35  43
HETATM   43  N   UNK N   1      36.038   9.783   7.571  0.00  0.00    -0.346 N 
HETATM   44  C   UNK N   1      36.532   9.569   8.797  0.00  0.00     0.235 C 
HETATM   45  O   UNK N   1      37.627  10.020   9.084  0.00  0.00    -0.272 OA
HETATM   46  H   UNK N   1      36.572  10.284   6.913  0.00  0.00     0.163 HD
BRANCH  44  47
HETATM   47  C   UNK N   1      35.727   8.795   9.802  0.00  0.00     0.220 C 
BRANCH  47  48
HETATM   48  N   UNK N   1      35.524   9.526  11.052  0.00  0.00    -0.393 N 
BRANCH  48  49
HETATM   49  C   UNK N   1      36.570   9.292  12.044  0.00  0.00     0.148 C 
BRANCH  49  50
HETATM   50  C   UNK N   1      36.040   9.492  13.463  0.00  0.00     0.292 C 
BRANCH  50  51
HETATM   51  N   UNK N   1      37.080   9.569  14.478  0.00  0.00     0.101 N 
BRANCH  51  52
HETATM   52  C   UNK N   1      36.859  10.631  15.450  0.00  0.00     0.303 C 
BRANCH  52  53
HETATM   53  C   UNK N   1      36.573   9.995  16.801  0.00  0.00     0.304 C 
BRANCH  53  54
HETATM   54  N   UNK N   1      35.875  10.959  17.655  0.00  0.00     0.110 N 
BRANCH  54  55
HETATM   55  C   UNK N   1      35.074  11.901  16.877  0.00  0.00     0.382 C 
BRANCH  55  56
HETATM   56  C   UNK N   1      35.433  13.321  17.211  0.00  0.00     0.169 C 
HETATM   57  O   UNK N   1      35.080  13.816  18.269  0.00  0.00    -0.649 OA
BRANCH  56  58
HETATM   58  O   UNK N   1      36.169  14.047  16.350  0.00  0.00    -0.775 OA
HETATM   59  H   UNK N   1      36.753  14.778  16.315  0.00  0.00     0.167 HD
ENDBRANCH  56  58
ENDBRANCH  55  56
ENDBRANCH  54  55
BRANCH  54  60
HETATM   60  C   UNK N   1      35.069  10.293  18.683  0.00  0.00     0.382 C 
BRANCH  60  61
HETATM   61  C   UNK N   1      35.416  10.698  20.088  0.00  0.00     0.169 C 
HETATM   62  O   UNK N   1      35.185   9.947  21.021  0.00  0.00    -0.649 OA
BRANCH  61  63
HETATM   63  O   UNK N   1      35.970  11.902  20.317  0.00  0.00    -0.775 OA
HETATM   64  H   UNK N   1      36.890  12.012  20.456  0.00  0.00     0.167 HD
ENDBRANCH  61  63
ENDBRANCH  60  61
ENDBRANCH  54  60
ENDBRANCH  53  54
ENDBRANCH  52  53
ENDBRANCH  51  52
BRANCH  51  65
HETATM   65  C   UNK N   1      38.420   9.604  13.918  0.00  0.00     0.381 C 
BRANCH  65  66
HETATM   66  C   UNK N   1      39.318   8.690  14.709  0.00  0.00     0.169 C 
HETATM   67  O   UNK N   1      38.908   7.601  15.073  0.00  0.00    -0.649 OA
BRANCH  66  68
HETATM   68  O   UNK N   1      40.570   9.069  15.035  0.00  0.00    -0.775 OA
HETATM   69  H   UNK N   1      41.414   8.770  15.313  0.00  0.00     0.167 HD
ENDBRANCH  66  68
ENDBRANCH  65  66
ENDBRANCH  51  65
ENDBRANCH  50  51
ENDBRANCH  49  50
ENDBRANCH  48  49
BRANCH  48  70
HETATM   70  C   UNK N   1      34.134   9.640  11.540  0.00  0.00     0.227 C 
BRANCH  70  71
HETATM   71  C   UNK N   1      33.096   9.969  10.492  0.00  0.00     0.157 C 
HETATM   72  O   UNK N   1      32.315   9.123  10.092  0.00  0.00    -0.649 OA
BRANCH  71  73
HETATM   73  O   UNK N   1      33.076  11.196   9.946  0.00  0.00    -0.775 OA
HETATM   74  H   UNK N   1      32.275  11.646   9.760  0.00  0.00     0.167 HD
ENDBRANCH  71  73
ENDBRANCH  70  71
ENDBRANCH  48  70
ENDBRANCH  47  48
ENDBRANCH  44  47
ENDBRANCH  35  43
ENDBRANCH  32  35
ENDBRANCH  10  31
BRANCH  14  75
HETATM   75  C   UNK N   1      32.351   9.703   2.312  0.00  0.00     0.073 C 
BRANCH  75  76
HETATM   76  C   UNK N   1      31.145   9.515   3.187  0.00  0.00    -0.056 A 
HETATM   77  C   UNK N   1      31.217   9.828   4.552  0.00  0.00     0.007 A 
HETATM   78  C   UNK N   1      30.137   9.545   5.396  0.00  0.00     0.001 A 
HETATM   79  C   UNK N   1      28.989   8.940   4.879  0.00  0.00     0.000 A 
HETATM   80  C   UNK N   1      28.916   8.625   3.518  0.00  0.00     0.001 A 
HETATM   81  C   UNK N   1      29.996   8.905   2.674  0.00  0.00     0.007 A 
ENDBRANCH  75  76
ENDBRANCH  14  75
BRANCH   5  82
HETATM   82  C   UNK N   1      35.206  13.348   8.385  0.00  0.00     0.241 C 
HETATM   83  O   UNK N   1      36.061  12.564   8.010  0.00  0.00    -0.271 OA
HETATM   84  N   UNK N   1      34.942  13.555   9.700  0.00  0.00    -0.350 N 
HETATM   85  H   UNK N   1      34.088  14.006   9.891  0.00  0.00     0.163 HD
BRANCH  84  86
HETATM   86  C   UNK N   1      35.730  13.209  10.860  0.00  0.00     0.136 C 
BRANCH  86  87
HETATM   87  C   UNK N   1      37.218  13.572  10.750  0.00  0.00     0.191 C 
BRANCH  87  88
HETATM   88  O   UNK N   1      38.018  12.469  10.440  0.00  0.00    -0.399 OA
HETATM   89  H   UNK N   1      38.301  11.784   9.815  0.00  0.00     0.209 HD
ENDBRANCH  87  88
ENDBRANCH  86  87
BRANCH  86  90
HETATM   90  C   UNK N   1      35.045  13.877  12.066  0.00  0.00     0.139 C 
HETATM   91  C   UNK N   1      34.917  12.968  13.283  0.00  0.00     0.041 C 
BRANCH  90  92
HETATM   92  O   UNK N   1      33.805  14.407  11.730  0.00  0.00    -0.394 OA
HETATM   93  H   UNK N   1      32.983  13.923  11.905  0.00  0.00     0.210 HD
ENDBRANCH  90  92
ENDBRANCH  86  90
ENDBRANCH  84  86
ENDBRANCH   5  82
BRANCH  18  94
HETATM   94  C   UNK N   1      31.041  13.648   2.726  0.00  0.00     0.075 C 
BRANCH  94  95
HETATM   95  C   UNK N   1      29.879  12.936   2.135  0.00  0.00    -0.028 A 
HETATM   96  C   UNK N   1      29.672  12.444   0.853  0.00  0.00     0.096 A 
HETATM   97  N   UNK N   1      28.471  11.799   0.811  0.00  0.00    -0.365 N 
HETATM   98  C   UNK N   1      27.960  11.900   2.046  0.00  0.00     0.042 A 
HETATM   99  H   UNK N   1      28.065  11.351   0.034  0.00  0.00     0.165 HD
HETATM  100  C   UNK N   1      28.785  12.597   2.872  0.00  0.00    -0.002 A 
HETATM  101  C   UNK N   1      26.757  11.367   2.515  0.00  0.00     0.030 A 
HETATM  102  C   UNK N   1      28.492  12.840   4.206  0.00  0.00     0.014 A 
HETATM  103  C   UNK N   1      27.286  12.328   4.709  0.00  0.00     0.001 A 
HETATM  104  C   UNK N   1      26.425  11.586   3.867  0.00  0.00     0.002 A 
ENDBRANCH  94  95
ENDBRANCH  18  94
BRANCH   1 105
HETATM  105  C   UNK N   1      31.367  16.833   8.405  0.00  0.00     0.146 C 
HETATM  106  C   UNK N   1      31.253  18.334   8.564  0.00  0.00     0.042 C 
BRANCH 105 107
HETATM  107  O   UNK N   1      31.398  16.234   9.668  0.00  0.00    -0.393 OA
HETATM  108  H   UNK N   1      30.629  16.249  10.260  0.00  0.00     0.210 HD
ENDBRANCH 105 107
ENDBRANCH   1 105
BRANCH  22 109
HETATM  109  C   UNK N   1      31.414  16.262   3.578  0.00  0.00     0.035 C 
BRANCH 109 110
HETATM  110  C   UNK N   1      30.178  16.633   4.391  0.00  0.00     0.004 C 
BRANCH 110 111
HETATM  111  C   UNK N   1      28.939  16.692   3.519  0.00  0.00     0.019 C 
BRANCH 111 112
HETATM  112  C   UNK N   1      27.864  17.539   4.176  0.00  0.00     0.111 C 
BRANCH 112 113
HETATM  113  N   UNK N   1      28.088  18.943   3.884  0.00  0.00    -0.430 N 
HETATM  114  H   UNK N   1      28.071  19.936   3.656  0.00  0.00     0.149 HD
HETATM  115  H   UNK N   1      29.099  18.900   4.017  0.00  0.00     0.149 HD
ENDBRANCH 112 113
ENDBRANCH 111 112
ENDBRANCH 110 111
ENDBRANCH 109 110
ENDBRANCH  22 109
TORSDOF 42
ENDMDL
MODEL 6
REMARK VINA RESULT:      -5.6      3.378      7.771
REMARK WARNING: 32 MAX_TORS EXCEEDED!!!
REMARK  42 active torsions:
REMARK  status: ('A' for Active; 'I' for Inactive)
REMARK    1  A    between atoms: C_3  and  C_2 
REMARK    2  A    between atoms: C_2  and  O_97 
REMARK    3  A    between atoms: C_7  and  C_88 
REMARK    4  A    between atoms: C_12  and  N_50 
REMARK    5  A    between atoms: C_16  and  C_43 
REMARK    6  A    between atoms: C_20  and  C_33 
REMARK    7  A    between atoms: C_24  and  C_28 
REMARK    8  A    between atoms: C_28  and  C_29 
REMARK    9  A    between atoms: C_29  and  C_30 
REMARK   10  A    between atoms: C_30  and  C_31 
REMARK   11  A    between atoms: C_31  and  N_32 
REMARK   12  A    between atoms: C_33  and  C_34 
REMARK   13  A    between atoms: C_43  and  C_44 
REMARK       I    between atoms: N_50  and  C_51 
REMARK   14  A    between atoms: C_51  and  C_53 
REMARK   15  A    between atoms: C_53  and  C_54 
REMARK   16  A    between atoms: C_53  and  N_61 
REMARK   17  A    between atoms: C_54  and  C_55 
REMARK       I    between atoms: N_61  and  C_62 
REMARK   18  A    between atoms: C_62  and  C_64 
REMARK   19  A    between atoms: C_64  and  N_65 
REMARK   20  A    between atoms: N_65  and  C_66 
REMARK   21  A    between atoms: N_65  and  C_84 
REMARK   22  A    between atoms: C_66  and  C_67 
REMARK   23  A    between atoms: C_67  and  N_68 
REMARK   24  A    between atoms: N_68  and  C_69 
REMARK   25  A    between atoms: N_68  and  C_80 
REMARK   26  A    between atoms: C_69  and  C_70 
REMARK   27  A    between atoms: C_70  and  N_71 
REMARK   28  A    between atoms: N_71  and  C_72 
REMARK   29  A    between atoms: N_71  and  C_76 
REMARK   30  A    between atoms: C_72  and  C_73 
REMARK   31  A    between atoms: C_73  and  O_75 
REMARK   32  A    between atoms: C_76  and  C_77 
REMARK   33  A    between atoms: C_77  and  O_79 
REMARK   34  A    between atoms: C_80  and  C_81 
REMARK   35  A    between atoms: C_81  and  O_83 
REMARK   36  A    between atoms: C_84  and  C_85 
REMARK   37  A    between atoms: C_85  and  O_87 
REMARK       I    between atoms: C_88  and  N_90 
REMARK   38  A    between atoms: C_91  and  N_90 
REMARK   39  A    between atoms: C_91  and  C_92 
REMARK   40  A    between atoms: C_91  and  C_94 
REMARK   41  A    between atoms: C_92  and  O_93 
REMARK   42  A    between atoms: C_94  and  O_96 
ROOT
HETATM    1  C   UNK N   1      36.731  12.880   4.630  0.00  0.00     0.205 C 
HETATM    2  C   UNK N   1      36.209  13.000   6.025  0.00  0.00     0.243 C 
HETATM    3  O   UNK N   1      36.981  12.987   6.971  0.00  0.00    -0.271 OA
HETATM    4  N   UNK N   1      34.892  12.858   6.257  0.00  0.00    -0.345 N 
HETATM    5  C   UNK N   1      33.889  13.082   5.248  0.00  0.00     0.186 C 
HETATM    6  C   UNK N   1      33.290  11.779   4.710  0.00  0.00     0.120 C 
HETATM    7  S   UNK N   1      32.324  10.785   5.875  0.00  0.00    -0.095 SA
HETATM    8  S   UNK N   1      31.061  10.148   4.278  0.00  0.00    -0.095 SA
HETATM    9  C   UNK N   1      29.888  11.506   4.552  0.00  0.00     0.120 C 
HETATM   10  C   UNK N   1      29.739  12.462   3.370  0.00  0.00     0.186 C 
HETATM   11  C   UNK N   1      28.711  12.182   2.302  0.00  0.00     0.242 C 
HETATM   12  O   UNK N   1      27.540  12.093   2.628  0.00  0.00    -0.271 OA
HETATM   13  N   UNK N   1      29.028  12.112   0.985  0.00  0.00    -0.346 N 
HETATM   14  C   UNK N   1      30.382  12.112   0.459  0.00  0.00     0.180 C 
HETATM   15  C   UNK N   1      31.108  10.863   0.934  0.00  0.00     0.241 C 
HETATM   16  O   UNK N   1      30.443   9.896   1.276  0.00  0.00    -0.271 OA
HETATM   17  N   UNK N   1      32.460  10.816   1.098  0.00  0.00    -0.346 N 
HETATM   18  C   UNK N   1      33.358  11.813   0.562  0.00  0.00     0.181 C 
HETATM   19  C   UNK N   1      34.138  12.642   1.579  0.00  0.00     0.241 C 
HETATM   20  O   UNK N   1      33.947  13.842   1.559  0.00  0.00    -0.271 OA
HETATM   21  N   UNK N   1      35.098  12.164   2.438  0.00  0.00    -0.346 N 
HETATM   22  C   UNK N   1      35.581  10.798   2.568  0.00  0.00     0.176 C 
HETATM   23  C   UNK N   1      36.519  10.540   3.744  0.00  0.00     0.241 C 
HETATM   24  O   UNK N   1      36.820   9.378   3.961  0.00  0.00    -0.271 OA
HETATM   25  N   UNK N   1      37.083  11.490   4.536  0.00  0.00    -0.344 N 
HETATM   26  H   UNK N   1      34.600  12.588   7.157  0.00  0.00     0.163 HD
HETATM   27  H   UNK N   1      28.287  12.056   0.339  0.00  0.00     0.163 HD
HETATM   28  H   UNK N   1      32.844  10.066   1.608  0.00  0.00     0.163 HD
HETATM   29  H   UNK N   1      35.507  12.825   3.039  0.00  0.00     0.163 HD
HETATM   30  H   UNK N   1      37.821  11.189   5.114  0.00  0.00     0.163 HD
ENDROOT
BRANCH  10  31
HETATM   31  N   UNK N   1      30.917  13.191   2.944  0.00  0.00    -0.345 N 
HETATM   32  C   UNK N   1      30.966  14.550   2.988  0.00  0.00     0.241 C 
HETATM   33  O   UNK N   1      31.969  15.134   2.620  0.00  0.00    -0.271 OA
HETATM   34  H   UNK N   1      31.699  12.692   2.615  0.00  0.00     0.163 HD
BRANCH  32  35
HETATM   35  C   UNK N   1      29.851  15.347   3.582  0.00  0.00     0.180 C 
BRANCH  35  36
HETATM   36  C   UNK N   1      30.323  16.667   4.204  0.00  0.00     0.073 C 
BRANCH  36  37
HETATM   37  C   UNK N   1      29.498  17.135   5.367  0.00  0.00    -0.056 A 
HETATM   38  C   UNK N   1      28.627  18.224   5.218  0.00  0.00     0.007 A 
HETATM   39  C   UNK N   1      27.877  18.685   6.299  0.00  0.00     0.001 A 
HETATM   40  C   UNK N   1      28.004  18.065   7.544  0.00  0.00     0.000 A 
HETATM   41  C   UNK N   1      28.880  16.986   7.702  0.00  0.00     0.001 A 
HETATM   42  C   UNK N   1      29.630  16.523   6.616  0.00  0.00     0.007 A 
ENDBRANCH  36  37
ENDBRANCH  35  36
BRANCH  35  43
HETATM   43  N   UNK N   1      28.882  15.541   2.537  0.00  0.00    -0.346 N 
HETATM   44  C   UNK N   1      27.571  15.439   2.785  0.00  0.00     0.235 C 
HETATM   45  O   UNK N   1      26.779  15.587   1.870  0.00  0.00    -0.272 OA
HETATM   46  H   UNK N   1      29.189  15.752   1.625  0.00  0.00     0.163 HD
BRANCH  44  47
HETATM   47  C   UNK N   1      27.096  15.128   4.175  0.00  0.00     0.220 C 
BRANCH  47  48
HETATM   48  N   UNK N   1      25.646  15.254   4.322  0.00  0.00    -0.393 N 
BRANCH  48  49
HETATM   49  C   UNK N   1      25.238  16.365   5.177  0.00  0.00     0.148 C 
BRANCH  49  50
HETATM   50  C   UNK N   1      23.944  17.002   4.675  0.00  0.00     0.292 C 
BRANCH  50  51
HETATM   51  N   UNK N   1      24.058  18.423   4.381  0.00  0.00     0.101 N 
BRANCH  51  52
HETATM   52  C   UNK N   1      22.777  19.062   4.117  0.00  0.00     0.303 C 
BRANCH  52  53
HETATM   53  C   UNK N   1      21.728  17.979   3.925  0.00  0.00     0.304 C 
BRANCH  53  54
HETATM   54  N   UNK N   1      21.129  18.109   2.595  0.00  0.00     0.110 N 
BRANCH  54  55
HETATM   55  C   UNK N   1      20.312  16.949   2.246  0.00  0.00     0.382 C 
BRANCH  55  56
HETATM   56  C   UNK N   1      20.692  16.405   0.899  0.00  0.00     0.169 C 
HETATM   57  O   UNK N   1      21.331  15.369   0.807  0.00  0.00    -0.649 OA
BRANCH  56  58
HETATM   58  O   UNK N   1      20.306  17.049  -0.218  0.00  0.00    -0.775 OA
HETATM   59  H   UNK N   1      20.159  16.913  -1.133  0.00  0.00     0.167 HD
ENDBRANCH  56  58
ENDBRANCH  55  56
ENDBRANCH  54  55
BRANCH  54  60
HETATM   60  C   UNK N   1      20.371  19.357   2.458  0.00  0.00     0.382 C 
BRANCH  60  61
HETATM   61  C   UNK N   1      20.858  20.248   1.350  0.00  0.00     0.169 C 
HETATM   62  O   UNK N   1      21.395  21.312   1.606  0.00  0.00    -0.649 OA
BRANCH  61  63
HETATM   63  O   UNK N   1      20.686  19.873   0.070  0.00  0.00    -0.775 OA
HETATM   64  H   UNK N   1      21.383  19.521  -0.448  0.00  0.00     0.167 HD
ENDBRANCH  61  63
ENDBRANCH  60  61
ENDBRANCH  54  60
ENDBRANCH  53  54
ENDBRANCH  52  53
ENDBRANCH  51  52
BRANCH  51  65
HETATM   65  C   UNK N   1      25.042  18.713   3.352  0.00  0.00     0.381 C 
BRANCH  65  66
HETATM   66  C   UNK N   1      25.307  20.195   3.316  0.00  0.00     0.169 C 
HETATM   67  O   UNK N   1      25.048  20.835   2.311  0.00  0.00    -0.649 OA
BRANCH  66  68
HETATM   68  O   UNK N   1      25.844  20.824   4.381  0.00  0.00    -0.775 OA
HETATM   69  H   UNK N   1      26.009  21.658   4.777  0.00  0.00     0.167 HD
ENDBRANCH  66  68
ENDBRANCH  65  66
ENDBRANCH  51  65
ENDBRANCH  50  51
ENDBRANCH  49  50
ENDBRANCH  48  49
BRANCH  48  70
HETATM   70  C   UNK N   1      24.874  13.998   4.421  0.00  0.00     0.227 C 
BRANCH  70  71
HETATM   71  C   UNK N   1      24.220  13.528   3.144  0.00  0.00     0.157 C 
HETATM   72  O   UNK N   1      23.998  12.347   2.947  0.00  0.00    -0.649 OA
BRANCH  71  73
HETATM   73  O   UNK N   1      23.936  14.421   2.181  0.00  0.00    -0.775 OA
HETATM   74  H   UNK N   1      23.225  14.300   1.582  0.00  0.00     0.167 HD
ENDBRANCH  71  73
ENDBRANCH  70  71
ENDBRANCH  48  70
ENDBRANCH  47  48
ENDBRANCH  44  47
ENDBRANCH  35  43
ENDBRANCH  32  35
ENDBRANCH  10  31
BRANCH  14  75
HETATM   75  C   UNK N   1      30.388  12.313  -1.070  0.00  0.00     0.073 C 
BRANCH  75  76
HETATM   76  C   UNK N   1      30.410  11.012  -1.821  0.00  0.00    -0.056 A 
HETATM   77  C   UNK N   1      31.426  10.762  -2.755  0.00  0.00     0.007 A 
HETATM   78  C   UNK N   1      31.388   9.606  -3.542  0.00  0.00     0.001 A 
HETATM   79  C   UNK N   1      30.329   8.704  -3.405  0.00  0.00     0.000 A 
HETATM   80  C   UNK N   1      29.314   8.953  -2.475  0.00  0.00     0.001 A 
HETATM   81  C   UNK N   1      29.350  10.110  -1.689  0.00  0.00     0.007 A 
ENDBRANCH  75  76
ENDBRANCH  14  75
BRANCH   5  82
HETATM   82  C   UNK N   1      32.980  14.049   5.900  0.00  0.00     0.241 C 
HETATM   83  O   UNK N   1      31.893  13.704   6.331  0.00  0.00    -0.271 OA
HETATM   84  N   UNK N   1      33.529  15.252   6.204  0.00  0.00    -0.350 N 
HETATM   85  H   UNK N   1      34.273  15.532   5.624  0.00  0.00     0.163 HD
BRANCH  84  86
HETATM   86  C   UNK N   1      33.181  16.182   7.253  0.00  0.00     0.136 C 
BRANCH  86  87
HETATM   87  C   UNK N   1      33.924  15.954   8.577  0.00  0.00     0.191 C 
BRANCH  87  88
HETATM   88  O   UNK N   1      35.136  15.281   8.403  0.00  0.00    -0.399 OA
HETATM   89  H   UNK N   1      35.631  14.457   8.279  0.00  0.00     0.209 HD
ENDBRANCH  87  88
ENDBRANCH  86  87
BRANCH  86  90
HETATM   90  C   UNK N   1      33.414  17.591   6.680  0.00  0.00     0.139 C 
HETATM   91  C   UNK N   1      33.439  17.640   5.156  0.00  0.00     0.041 C 
BRANCH  90  92
HETATM   92  O   UNK N   1      34.563  18.178   7.197  0.00  0.00    -0.394 OA
HETATM   93  H   UNK N   1      35.432  18.033   6.792  0.00  0.00     0.210 HD
ENDBRANCH  90  92
ENDBRANCH  86  90
ENDBRANCH  84  86
ENDBRANCH   5  82
BRANCH  18  94
HETATM   94  C   UNK N   1      34.342  11.162  -0.367  0.00  0.00     0.075 C 
BRANCH  94  95
HETATM   95  C   UNK N   1      34.513  11.713  -1.735  0.00  0.00    -0.028 A 
HETATM   96  C   UNK N   1      34.430  13.018  -2.206  0.00  0.00     0.096 A 
HETATM   97  N   UNK N   1      34.739  13.034  -3.533  0.00  0.00    -0.365 N 
HETATM   98  C   UNK N   1      35.004  11.761  -3.861  0.00  0.00     0.042 A 
HETATM   99  H   UNK N   1      34.764  13.818  -4.128  0.00  0.00     0.165 HD
HETATM  100  C   UNK N   1      34.863  10.931  -2.793  0.00  0.00    -0.002 A 
HETATM  101  C   UNK N   1      35.405  11.268  -5.105  0.00  0.00     0.030 A 
HETATM  102  C   UNK N   1      35.083   9.563  -2.864  0.00  0.00     0.014 A 
HETATM  103  C   UNK N   1      35.477   9.032  -4.101  0.00  0.00     0.001 A 
HETATM  104  C   UNK N   1      35.646   9.885  -5.217  0.00  0.00     0.002 A 
ENDBRANCH  94  95
ENDBRANCH  18  94
BRANCH   1 105
HETATM  105  C   UNK N   1      37.932  13.812   4.385  0.00  0.00     0.146 C 
HETATM  106  C   UNK N   1      39.246  13.062   4.450  0.00  0.00     0.042 C 
BRANCH 105 107
HETATM  107  O   UNK N   1      37.957  14.868   5.300  0.00  0.00    -0.393 OA
HETATM  108  H   UNK N   1      38.730  15.040   5.863  0.00  0.00     0.210 HD
ENDBRANCH 105 107
ENDBRANCH   1 105
BRANCH  22 109
HETATM  109  C   UNK N   1      36.378  10.359   1.337  0.00  0.00     0.035 C 
BRANCH 109 110
HETATM  110  C   UNK N   1      37.567  11.276   1.070  0.00  0.00     0.004 C 
BRANCH 110 111
HETATM  111  C   UNK N   1      38.832  10.482   0.810  0.00  0.00     0.019 C 
BRANCH 111 112
HETATM  112  C   UNK N   1      38.574   8.996   0.987  0.00  0.00     0.111 C 
BRANCH 112 113
HETATM  113  N   UNK N   1      39.249   8.511   2.176  0.00  0.00    -0.430 N 
HETATM  114  H   UNK N   1      39.871   8.194   2.919  0.00  0.00     0.149 HD
HETATM  115  H   UNK N   1      38.393   8.378   2.715  0.00  0.00     0.149 HD
ENDBRANCH 112 113
ENDBRANCH 111 112
ENDBRANCH 110 111
ENDBRANCH 109 110
ENDBRANCH  22 109
TORSDOF 42
ENDMDL
MODEL 7
REMARK VINA RESULT:      -5.5      4.008      8.462
REMARK WARNING: 32 MAX_TORS EXCEEDED!!!
REMARK  42 active torsions:
REMARK  status: ('A' for Active; 'I' for Inactive)
REMARK    1  A    between atoms: C_3  and  C_2 
REMARK    2  A    between atoms: C_2  and  O_97 
REMARK    3  A    between atoms: C_7  and  C_88 
REMARK    4  A    between atoms: C_12  and  N_50 
REMARK    5  A    between atoms: C_16  and  C_43 
REMARK    6  A    between atoms: C_20  and  C_33 
REMARK    7  A    between atoms: C_24  and  C_28 
REMARK    8  A    between atoms: C_28  and  C_29 
REMARK    9  A    between atoms: C_29  and  C_30 
REMARK   10  A    between atoms: C_30  and  C_31 
REMARK   11  A    between atoms: C_31  and  N_32 
REMARK   12  A    between atoms: C_33  and  C_34 
REMARK   13  A    between atoms: C_43  and  C_44 
REMARK       I    between atoms: N_50  and  C_51 
REMARK   14  A    between atoms: C_51  and  C_53 
REMARK   15  A    between atoms: C_53  and  C_54 
REMARK   16  A    between atoms: C_53  and  N_61 
REMARK   17  A    between atoms: C_54  and  C_55 
REMARK       I    between atoms: N_61  and  C_62 
REMARK   18  A    between atoms: C_62  and  C_64 
REMARK   19  A    between atoms: C_64  and  N_65 
REMARK   20  A    between atoms: N_65  and  C_66 
REMARK   21  A    between atoms: N_65  and  C_84 
REMARK   22  A    between atoms: C_66  and  C_67 
REMARK   23  A    between atoms: C_67  and  N_68 
REMARK   24  A    between atoms: N_68  and  C_69 
REMARK   25  A    between atoms: N_68  and  C_80 
REMARK   26  A    between atoms: C_69  and  C_70 
REMARK   27  A    between atoms: C_70  and  N_71 
REMARK   28  A    between atoms: N_71  and  C_72 
REMARK   29  A    between atoms: N_71  and  C_76 
REMARK   30  A    between atoms: C_72  and  C_73 
REMARK   31  A    between atoms: C_73  and  O_75 
REMARK   32  A    between atoms: C_76  and  C_77 
REMARK   33  A    between atoms: C_77  and  O_79 
REMARK   34  A    between atoms: C_80  and  C_81 
REMARK   35  A    between atoms: C_81  and  O_83 
REMARK   36  A    between atoms: C_84  and  C_85 
REMARK   37  A    between atoms: C_85  and  O_87 
REMARK       I    between atoms: C_88  and  N_90 
REMARK   38  A    between atoms: C_91  and  N_90 
REMARK   39  A    between atoms: C_91  and  C_92 
REMARK   40  A    between atoms: C_91  and  C_94 
REMARK   41  A    between atoms: C_92  and  O_93 
REMARK   42  A    between atoms: C_94  and  O_96 
ROOT
HETATM    1  C   UNK N   1      36.320  11.450  12.644  0.00  0.00     0.205 C 
HETATM    2  C   UNK N   1      34.970  12.090  12.618  0.00  0.00     0.243 C 
HETATM    3  O   UNK N   1      34.503  12.577  13.637  0.00  0.00    -0.271 OA
HETATM    4  N   UNK N   1      34.164  11.903  11.559  0.00  0.00    -0.345 N 
HETATM    5  C   UNK N   1      34.657  11.552  10.252  0.00  0.00     0.186 C 
HETATM    6  C   UNK N   1      34.405  10.082   9.901  0.00  0.00     0.120 C 
HETATM    7  S   UNK N   1      32.677   9.572   9.716  0.00  0.00    -0.095 SA
HETATM    8  S   UNK N   1      33.256   8.166   8.220  0.00  0.00    -0.095 SA
HETATM    9  C   UNK N   1      32.990   9.358   6.877  0.00  0.00     0.120 C 
HETATM   10  C   UNK N   1      34.243   9.691   6.068  0.00  0.00     0.186 C 
HETATM   11  C   UNK N   1      34.601   8.859   4.861  0.00  0.00     0.242 C 
HETATM   12  O   UNK N   1      33.797   8.777   3.949  0.00  0.00    -0.271 OA
HETATM   13  N   UNK N   1      35.814   8.272   4.716  0.00  0.00    -0.346 N 
HETATM   14  C   UNK N   1      36.834   8.211   5.749  0.00  0.00     0.180 C 
HETATM   15  C   UNK N   1      36.320   7.383   6.916  0.00  0.00     0.241 C 
HETATM   16  O   UNK N   1      35.419   6.582   6.712  0.00  0.00    -0.271 OA
HETATM   17  N   UNK N   1      36.745   7.574   8.197  0.00  0.00    -0.346 N 
HETATM   18  C   UNK N   1      37.918   8.347   8.536  0.00  0.00     0.181 C 
HETATM   19  C   UNK N   1      37.683   9.619   9.346  0.00  0.00     0.241 C 
HETATM   20  O   UNK N   1      38.028  10.663   8.828  0.00  0.00    -0.271 OA
HETATM   21  N   UNK N   1      37.211   9.674  10.635  0.00  0.00    -0.346 N 
HETATM   22  C   UNK N   1      36.842   8.564  11.500  0.00  0.00     0.176 C 
HETATM   23  C   UNK N   1      36.171   8.949  12.816  0.00  0.00     0.241 C 
HETATM   24  O   UNK N   1      35.721   8.037  13.490  0.00  0.00    -0.271 OA
HETATM   25  N   UNK N   1      36.073  10.207  13.322  0.00  0.00    -0.344 N 
HETATM   26  H   UNK N   1      33.194  12.011  11.681  0.00  0.00     0.163 HD
HETATM   27  H   UNK N   1      36.020   7.856   3.847  0.00  0.00     0.163 HD
HETATM   28  H   UNK N   1      36.226   7.166   8.929  0.00  0.00     0.163 HD
HETATM   29  H   UNK N   1      37.109  10.573  11.020  0.00  0.00     0.163 HD
HETATM   30  H   UNK N   1      35.802  10.274  14.266  0.00  0.00     0.163 HD
ENDROOT
BRANCH  10  31
HETATM   31  N   UNK N   1      35.352  10.305   6.771  0.00  0.00    -0.345 N 
HETATM   32  C   UNK N   1      35.793  11.551   6.451  0.00  0.00     0.241 C 
HETATM   33  O   UNK N   1      36.730  12.038   7.058  0.00  0.00    -0.271 OA
HETATM   34  H   UNK N   1      35.796   9.808   7.496  0.00  0.00     0.163 HD
BRANCH  32  35
HETATM   35  C   UNK N   1      35.084  12.388   5.437  0.00  0.00     0.180 C 
BRANCH  35  36
HETATM   36  C   UNK N   1      35.181  11.818   4.016  0.00  0.00     0.073 C 
BRANCH  36  37
HETATM   37  C   UNK N   1      36.546  11.918   3.400  0.00  0.00    -0.056 A 
HETATM   38  C   UNK N   1      37.101  10.813   2.738  0.00  0.00     0.007 A 
HETATM   39  C   UNK N   1      38.380  10.885   2.187  0.00  0.00     0.001 A 
HETATM   40  C   UNK N   1      39.118  12.064   2.304  0.00  0.00     0.000 A 
HETATM   41  C   UNK N   1      38.575  13.166   2.973  0.00  0.00     0.001 A 
HETATM   42  C   UNK N   1      37.292  13.093   3.524  0.00  0.00     0.007 A 
ENDBRANCH  36  37
ENDBRANCH  35  36
BRANCH  35  43
HETATM   43  N   UNK N   1      33.726  12.520   5.890  0.00  0.00    -0.346 N 
HETATM   44  C   UNK N   1      33.091  13.697   5.831  0.00  0.00     0.235 C 
HETATM   45  O   UNK N   1      31.948  13.778   6.246  0.00  0.00    -0.272 OA
HETATM   46  H   UNK N   1      33.256  11.733   6.249  0.00  0.00     0.163 HD
BRANCH  44  47
HETATM   47  C   UNK N   1      33.798  14.900   5.275  0.00  0.00     0.220 C 
BRANCH  47  48
HETATM   48  N   UNK N   1      32.878  15.899   4.731  0.00  0.00    -0.393 N 
BRANCH  48  49
HETATM   49  C   UNK N   1      32.373  15.567   3.401  0.00  0.00     0.148 C 
BRANCH  49  50
HETATM   50  C   UNK N   1      31.206  16.473   3.012  0.00  0.00     0.292 C 
BRANCH  50  51
HETATM   51  N   UNK N   1      29.948  16.129   3.657  0.00  0.00     0.101 N 
BRANCH  51  52
HETATM   52  C   UNK N   1      28.986  15.514   2.753  0.00  0.00     0.303 C 
BRANCH  52  53
HETATM   53  C   UNK N   1      28.210  14.457   3.521  0.00  0.00     0.304 C 
BRANCH  53  54
HETATM   54  N   UNK N   1      28.642  13.125   3.090  0.00  0.00     0.110 N 
BRANCH  54  55
HETATM   55  C   UNK N   1      29.630  12.549   3.999  0.00  0.00     0.382 C 
BRANCH  55  56
HETATM   56  C   UNK N   1      30.860  12.111   3.256  0.00  0.00     0.169 C 
HETATM   57  O   UNK N   1      31.675  11.376   3.789  0.00  0.00    -0.649 OA
BRANCH  56  58
HETATM   58  O   UNK N   1      31.054  12.510   1.986  0.00  0.00    -0.775 OA
HETATM   59  H   UNK N   1      31.696  12.901   1.427  0.00  0.00     0.167 HD
ENDBRANCH  56  58
ENDBRANCH  55  56
ENDBRANCH  54  55
BRANCH  54  60
HETATM   60  C   UNK N   1      27.506  12.220   2.891  0.00  0.00     0.382 C 
BRANCH  60  61
HETATM   61  C   UNK N   1      27.357  11.727   1.480  0.00  0.00     0.169 C 
HETATM   62  O   UNK N   1      26.252  11.490   1.022  0.00  0.00    -0.649 OA
BRANCH  61  63
HETATM   63  O   UNK N   1      28.452  11.534   0.723  0.00  0.00    -0.775 OA
HETATM   64  H   UNK N   1      29.108  10.901   0.941  0.00  0.00     0.167 HD
ENDBRANCH  61  63
ENDBRANCH  60  61
ENDBRANCH  54  60
ENDBRANCH  53  54
ENDBRANCH  52  53
ENDBRANCH  51  52
BRANCH  51  65
HETATM   65  C   UNK N   1      29.373  17.231   4.408  0.00  0.00     0.381 C 
BRANCH  65  66
HETATM   66  C   UNK N   1      29.587  17.000   5.881  0.00  0.00     0.169 C 
HETATM   67  O   UNK N   1      29.389  17.905   6.673  0.00  0.00    -0.649 OA
BRANCH  66  68
HETATM   68  O   UNK N   1      30.012  15.803   6.334  0.00  0.00    -0.775 OA
HETATM   69  H   UNK N   1      30.106  14.893   6.126  0.00  0.00     0.167 HD
ENDBRANCH  66  68
ENDBRANCH  65  66
ENDBRANCH  51  65
ENDBRANCH  50  51
ENDBRANCH  49  50
ENDBRANCH  48  49
BRANCH  48  70
HETATM   70  C   UNK N   1      33.193  17.316   5.007  0.00  0.00     0.227 C 
BRANCH  70  71
HETATM   71  C   UNK N   1      33.459  17.658   6.454  0.00  0.00     0.157 C 
HETATM   72  O   UNK N   1      34.584  17.913   6.845  0.00  0.00    -0.649 OA
BRANCH  71  73
HETATM   73  O   UNK N   1      32.448  17.617   7.339  0.00  0.00    -0.775 OA
HETATM   74  H   UNK N   1      31.690  17.081   7.206  0.00  0.00     0.167 HD
ENDBRANCH  71  73
ENDBRANCH  70  71
ENDBRANCH  48  70
ENDBRANCH  47  48
ENDBRANCH  44  47
ENDBRANCH  35  43
ENDBRANCH  32  35
ENDBRANCH  10  31
BRANCH  14  75
HETATM   75  C   UNK N   1      38.185   7.738   5.175  0.00  0.00     0.073 C 
BRANCH  75  76
HETATM   76  C   UNK N   1      39.246   8.799   5.254  0.00  0.00    -0.056 A 
HETATM   77  C   UNK N   1      38.934  10.060   5.783  0.00  0.00     0.007 A 
HETATM   78  C   UNK N   1      39.881  11.089   5.751  0.00  0.00     0.001 A 
HETATM   79  C   UNK N   1      41.137  10.863   5.180  0.00  0.00     0.000 A 
HETATM   80  C   UNK N   1      41.449   9.607   4.650  0.00  0.00     0.001 A 
HETATM   81  C   UNK N   1      40.502   8.578   4.679  0.00  0.00     0.007 A 
ENDBRANCH  75  76
ENDBRANCH  14  75
BRANCH   5  82
HETATM   82  C   UNK N   1      34.052  12.586   9.385  0.00  0.00     0.241 C 
HETATM   83  O   UNK N   1      32.987  12.398   8.823  0.00  0.00    -0.271 OA
HETATM   84  N   UNK N   1      34.622  13.815   9.461  0.00  0.00    -0.350 N 
HETATM   85  H   UNK N   1      35.574  13.822   9.710  0.00  0.00     0.163 HD
BRANCH  84  86
HETATM   86  C   UNK N   1      34.036  15.115   9.229  0.00  0.00     0.136 C 
BRANCH  86  87
HETATM   87  C   UNK N   1      32.583  15.252   9.709  0.00  0.00     0.191 C 
BRANCH  87  88
HETATM   88  O   UNK N   1      31.667  15.237   8.653  0.00  0.00    -0.399 OA
HETATM   89  H   UNK N   1      30.793  15.452   8.294  0.00  0.00     0.209 HD
ENDBRANCH  87  88
ENDBRANCH  86  87
BRANCH  86  90
HETATM   90  C   UNK N   1      34.975  16.140   9.890  0.00  0.00     0.139 C 
HETATM   91  C   UNK N   1      35.332  15.807  11.335  0.00  0.00     0.041 C 
BRANCH  90  92
HETATM   92  O   UNK N   1      34.474  17.434   9.805  0.00  0.00    -0.394 OA
HETATM   93  H   UNK N   1      33.876  17.699   9.090  0.00  0.00     0.210 HD
ENDBRANCH  90  92
ENDBRANCH  86  90
ENDBRANCH  84  86
ENDBRANCH   5  82
BRANCH  18  94
HETATM   94  C   UNK N   1      38.893   7.486   9.284  0.00  0.00     0.075 C 
BRANCH  94  95
HETATM   95  C   UNK N   1      40.180   7.124   8.636  0.00  0.00    -0.028 A 
HETATM   96  C   UNK N   1      40.598   5.937   8.048  0.00  0.00     0.096 A 
HETATM   97  N   UNK N   1      41.843   6.115   7.521  0.00  0.00    -0.365 N 
HETATM   98  C   UNK N   1      42.173   7.387   7.787  0.00  0.00     0.042 A 
HETATM   99  H   UNK N   1      42.387   5.447   7.044  0.00  0.00     0.165 HD
HETATM  100  C   UNK N   1      41.189   8.024   8.476  0.00  0.00    -0.002 A 
HETATM  101  C   UNK N   1      43.342   8.057   7.420  0.00  0.00     0.030 A 
HETATM  102  C   UNK N   1      41.279   9.351   8.871  0.00  0.00     0.014 A 
HETATM  103  C   UNK N   1      42.444  10.053   8.527  0.00  0.00     0.001 A 
HETATM  104  C   UNK N   1      43.469   9.409   7.796  0.00  0.00     0.002 A 
ENDBRANCH  94  95
ENDBRANCH  18  94
BRANCH   1 105
HETATM  105  C   UNK N   1      37.356  12.326  13.372  0.00  0.00     0.146 C 
HETATM  106  C   UNK N   1      37.587  11.857  14.792  0.00  0.00     0.042 C 
BRANCH 105 107
HETATM  107  O   UNK N   1      36.973  13.670  13.386  0.00  0.00    -0.393 OA
HETATM  108  H   UNK N   1      37.626  14.389  13.368  0.00  0.00     0.210 HD
ENDBRANCH 105 107
ENDBRANCH   1 105
BRANCH  22 109
HETATM  109  C   UNK N   1      38.063   7.741  11.919  0.00  0.00     0.035 C 
BRANCH 109 110
HETATM  110  C   UNK N   1      39.052   8.563  12.739  0.00  0.00     0.004 C 
BRANCH 110 111
HETATM  111  C   UNK N   1      39.814   7.695  13.720  0.00  0.00     0.019 C 
BRANCH 111 112
HETATM  112  C   UNK N   1      38.874   7.113  14.760  0.00  0.00     0.111 C 
BRANCH 112 113
HETATM  113  N   UNK N   1      38.265   8.180  15.534  0.00  0.00    -0.430 N 
HETATM  114  H   UNK N   1      38.003   8.981  16.106  0.00  0.00     0.149 HD
HETATM  115  H   UNK N   1      37.306   7.880  15.357  0.00  0.00     0.149 HD
ENDBRANCH 112 113
ENDBRANCH 111 112
ENDBRANCH 110 111
ENDBRANCH 109 110
ENDBRANCH  22 109
TORSDOF 42
ENDMDL
MODEL 8
REMARK VINA RESULT:      -5.5      1.580      2.420
REMARK WARNING: 32 MAX_TORS EXCEEDED!!!
REMARK  42 active torsions:
REMARK  status: ('A' for Active; 'I' for Inactive)
REMARK    1  A    between atoms: C_3  and  C_2 
REMARK    2  A    between atoms: C_2  and  O_97 
REMARK    3  A    between atoms: C_7  and  C_88 
REMARK    4  A    between atoms: C_12  and  N_50 
REMARK    5  A    between atoms: C_16  and  C_43 
REMARK    6  A    between atoms: C_20  and  C_33 
REMARK    7  A    between atoms: C_24  and  C_28 
REMARK    8  A    between atoms: C_28  and  C_29 
REMARK    9  A    between atoms: C_29  and  C_30 
REMARK   10  A    between atoms: C_30  and  C_31 
REMARK   11  A    between atoms: C_31  and  N_32 
REMARK   12  A    between atoms: C_33  and  C_34 
REMARK   13  A    between atoms: C_43  and  C_44 
REMARK       I    between atoms: N_50  and  C_51 
REMARK   14  A    between atoms: C_51  and  C_53 
REMARK   15  A    between atoms: C_53  and  C_54 
REMARK   16  A    between atoms: C_53  and  N_61 
REMARK   17  A    between atoms: C_54  and  C_55 
REMARK       I    between atoms: N_61  and  C_62 
REMARK   18  A    between atoms: C_62  and  C_64 
REMARK   19  A    between atoms: C_64  and  N_65 
REMARK   20  A    between atoms: N_65  and  C_66 
REMARK   21  A    between atoms: N_65  and  C_84 
REMARK   22  A    between atoms: C_66  and  C_67 
REMARK   23  A    between atoms: C_67  and  N_68 
REMARK   24  A    between atoms: N_68  and  C_69 
REMARK   25  A    between atoms: N_68  and  C_80 
REMARK   26  A    between atoms: C_69  and  C_70 
REMARK   27  A    between atoms: C_70  and  N_71 
REMARK   28  A    between atoms: N_71  and  C_72 
REMARK   29  A    between atoms: N_71  and  C_76 
REMARK   30  A    between atoms: C_72  and  C_73 
REMARK   31  A    between atoms: C_73  and  O_75 
REMARK   32  A    between atoms: C_76  and  C_77 
REMARK   33  A    between atoms: C_77  and  O_79 
REMARK   34  A    between atoms: C_80  and  C_81 
REMARK   35  A    between atoms: C_81  and  O_83 
REMARK   36  A    between atoms: C_84  and  C_85 
REMARK   37  A    between atoms: C_85  and  O_87 
REMARK       I    between atoms: C_88  and  N_90 
REMARK   38  A    between atoms: C_91  and  N_90 
REMARK   39  A    between atoms: C_91  and  C_92 
REMARK   40  A    between atoms: C_91  and  C_94 
REMARK   41  A    between atoms: C_92  and  O_93 
REMARK   42  A    between atoms: C_94  and  O_96 
ROOT
HETATM    1  C   UNK N   1      31.188   7.632   6.151  0.00  0.00     0.205 C 
HETATM    2  C   UNK N   1      30.194   7.638   5.035  0.00  0.00     0.243 C 
HETATM    3  O   UNK N   1      29.523   6.643   4.807  0.00  0.00    -0.271 OA
HETATM    4  N   UNK N   1      30.220   8.627   4.125  0.00  0.00    -0.345 N 
HETATM    5  C   UNK N   1      30.790   9.923   4.392  0.00  0.00     0.186 C 
HETATM    6  C   UNK N   1      32.148  10.122   3.714  0.00  0.00     0.120 C 
HETATM    7  S   UNK N   1      32.158  10.159   1.903  0.00  0.00    -0.095 SA
HETATM    8  S   UNK N   1      33.774  11.550   1.944  0.00  0.00    -0.095 SA
HETATM    9  C   UNK N   1      32.655  12.979   1.911  0.00  0.00     0.120 C 
HETATM   10  C   UNK N   1      32.751  13.887   3.136  0.00  0.00     0.186 C 
HETATM   11  C   UNK N   1      33.734  15.031   3.149  0.00  0.00     0.242 C 
HETATM   12  O   UNK N   1      33.650  15.883   2.282  0.00  0.00    -0.271 OA
HETATM   13  N   UNK N   1      34.651  15.192   4.135  0.00  0.00    -0.346 N 
HETATM   14  C   UNK N   1      34.925  14.219   5.178  0.00  0.00     0.180 C 
HETATM   15  C   UNK N   1      35.487  12.952   4.551  0.00  0.00     0.241 C 
HETATM   16  O   UNK N   1      36.011  13.030   3.449  0.00  0.00    -0.271 OA
HETATM   17  N   UNK N   1      35.333  11.722   5.116  0.00  0.00    -0.346 N 
HETATM   18  C   UNK N   1      34.903  11.524   6.481  0.00  0.00     0.181 C 
HETATM   19  C   UNK N   1      33.562  10.822   6.677  0.00  0.00     0.241 C 
HETATM   20  O   UNK N   1      32.700  11.453   7.255  0.00  0.00    -0.271 OA
HETATM   21  N   UNK N   1      33.283   9.518   6.346  0.00  0.00    -0.346 N 
HETATM   22  C   UNK N   1      34.178   8.534   5.755  0.00  0.00     0.176 C 
HETATM   23  C   UNK N   1      33.524   7.223   5.327  0.00  0.00     0.241 C 
HETATM   24  O   UNK N   1      34.220   6.443   4.698  0.00  0.00    -0.271 OA
HETATM   25  N   UNK N   1      32.258   6.830   5.625  0.00  0.00    -0.344 N 
HETATM   26  H   UNK N   1      29.832   8.459   3.237  0.00  0.00     0.163 HD
HETATM   27  H   UNK N   1      35.169  16.029   4.145  0.00  0.00     0.163 HD
HETATM   28  H   UNK N   1      35.523  10.927   4.566  0.00  0.00     0.163 HD
HETATM   29  H   UNK N   1      32.367   9.212   6.530  0.00  0.00     0.163 HD
HETATM   30  H   UNK N   1      32.049   5.882   5.461  0.00  0.00     0.163 HD
ENDROOT
BRANCH  10  31
HETATM   31  N   UNK N   1      32.429  13.309   4.426  0.00  0.00    -0.345 N 
HETATM   32  C   UNK N   1      31.494  13.868   5.241  0.00  0.00     0.241 C 
HETATM   33  O   UNK N   1      31.248  13.360   6.321  0.00  0.00    -0.271 OA
HETATM   34  H   UNK N   1      32.898  12.494   4.719  0.00  0.00     0.163 HD
BRANCH  32  35
HETATM   35  C   UNK N   1      30.677  15.037   4.797  0.00  0.00     0.180 C 
BRANCH  35  36
HETATM   36  C   UNK N   1      31.494  16.330   4.686  0.00  0.00     0.073 C 
BRANCH  36  37
HETATM   37  C   UNK N   1      31.858  16.950   6.003  0.00  0.00    -0.056 A 
HETATM   38  C   UNK N   1      33.122  17.531   6.182  0.00  0.00     0.007 A 
HETATM   39  C   UNK N   1      33.481  18.084   7.410  0.00  0.00     0.001 A 
HETATM   40  C   UNK N   1      32.578  18.050   8.475  0.00  0.00     0.000 A 
HETATM   41  C   UNK N   1      31.320  17.462   8.307  0.00  0.00     0.001 A 
HETATM   42  C   UNK N   1      30.960  16.909   7.073  0.00  0.00     0.007 A 
ENDBRANCH  36  37
ENDBRANCH  35  36
BRANCH  35  43
HETATM   43  N   UNK N   1      30.062  14.660   3.553  0.00  0.00    -0.346 N 
HETATM   44  C   UNK N   1      28.729  14.632   3.424  0.00  0.00     0.235 C 
HETATM   45  O   UNK N   1      28.242  14.285   2.362  0.00  0.00    -0.272 OA
HETATM   46  H   UNK N   1      30.629  14.418   2.786  0.00  0.00     0.163 HD
BRANCH  44  47
HETATM   47  C   UNK N   1      27.858  15.010   4.587  0.00  0.00     0.220 C 
BRANCH  47  48
HETATM   48  N   UNK N   1      27.058  16.207   4.333  0.00  0.00    -0.393 N 
BRANCH  48  49
HETATM   49  C   UNK N   1      25.679  15.920   3.950  0.00  0.00     0.148 C 
BRANCH  49  50
HETATM   50  C   UNK N   1      24.857  15.454   5.151  0.00  0.00     0.292 C 
BRANCH  50  51
HETATM   51  N   UNK N   1      23.599  16.165   5.320  0.00  0.00     0.101 N 
BRANCH  51  52
HETATM   52  C   UNK N   1      23.750  17.613   5.314  0.00  0.00     0.303 C 
BRANCH  52  53
HETATM   53  C   UNK N   1      22.403  18.237   4.988  0.00  0.00     0.304 C 
BRANCH  53  54
HETATM   54  N   UNK N   1      22.557  19.177   3.875  0.00  0.00     0.110 N 
BRANCH  54  55
HETATM   55  C   UNK N   1      23.914  19.165   3.332  0.00  0.00     0.382 C 
BRANCH  55  56
HETATM   56  C   UNK N   1      24.334  20.539   2.895  0.00  0.00     0.169 C 
HETATM   57  O   UNK N   1      23.621  21.504   3.116  0.00  0.00    -0.649 OA
BRANCH  56  58
HETATM   58  O   UNK N   1      25.517  20.714   2.278  0.00  0.00    -0.775 OA
HETATM   59  H   UNK N   1      26.131  20.274   1.724  0.00  0.00     0.167 HD
ENDBRANCH  56  58
ENDBRANCH  55  56
ENDBRANCH  54  55
BRANCH  54  60
HETATM   60  C   UNK N   1      21.559  18.949   2.825  0.00  0.00     0.382 C 
BRANCH  60  61
HETATM   61  C   UNK N   1      20.863  20.198   2.364  0.00  0.00     0.169 C 
HETATM   62  O   UNK N   1      20.453  20.289   1.218  0.00  0.00    -0.649 OA
BRANCH  61  63
HETATM   63  O   UNK N   1      20.705  21.227   3.216  0.00  0.00    -0.775 OA
HETATM   64  H   UNK N   1      20.122  21.187   3.948  0.00  0.00     0.167 HD
ENDBRANCH  61  63
ENDBRANCH  60  61
ENDBRANCH  54  60
ENDBRANCH  53  54
ENDBRANCH  52  53
ENDBRANCH  51  52
BRANCH  51  65
HETATM   65  C   UNK N   1      22.828  15.695   6.458  0.00  0.00     0.381 C 
BRANCH  65  66
HETATM   66  C   UNK N   1      21.632  14.922   5.969  0.00  0.00     0.169 C 
HETATM   67  O   UNK N   1      20.516  15.215   6.363  0.00  0.00    -0.649 OA
BRANCH  66  68
HETATM   68  O   UNK N   1      21.782  13.895   5.109  0.00  0.00    -0.775 OA
HETATM   69  H   UNK N   1      21.827  13.653   4.204  0.00  0.00     0.167 HD
ENDBRANCH  66  68
ENDBRANCH  65  66
ENDBRANCH  51  65
ENDBRANCH  50  51
ENDBRANCH  49  50
ENDBRANCH  48  49
BRANCH  48  70
HETATM   70  C   UNK N   1      27.735  17.330   3.651  0.00  0.00     0.227 C 
BRANCH  70  71
HETATM   71  C   UNK N   1      27.599  18.679   4.317  0.00  0.00     0.157 C 
HETATM   72  O   UNK N   1      27.113  18.787   5.429  0.00  0.00    -0.649 OA
BRANCH  71  73
HETATM   73  O   UNK N   1      27.961  19.786   3.646  0.00  0.00    -0.775 OA
HETATM   74  H   UNK N   1      27.947  20.635   4.041  0.00  0.00     0.167 HD
ENDBRANCH  71  73
ENDBRANCH  70  71
ENDBRANCH  48  70
ENDBRANCH  47  48
ENDBRANCH  44  47
ENDBRANCH  35  43
ENDBRANCH  32  35
ENDBRANCH  10  31
BRANCH  14  75
HETATM   75  C   UNK N   1      35.802  14.825   6.293  0.00  0.00     0.073 C 
BRANCH  75  76
HETATM   76  C   UNK N   1      35.071  14.940   7.601  0.00  0.00    -0.056 A 
HETATM   77  C   UNK N   1      35.711  15.510   8.710  0.00  0.00     0.007 A 
HETATM   78  C   UNK N   1      35.081  15.513   9.960  0.00  0.00     0.001 A 
HETATM   79  C   UNK N   1      33.816  14.936  10.104  0.00  0.00     0.000 A 
HETATM   80  C   UNK N   1      33.178  14.365   8.998  0.00  0.00     0.001 A 
HETATM   81  C   UNK N   1      33.807  14.360   7.749  0.00  0.00     0.007 A 
ENDBRANCH  75  76
ENDBRANCH  14  75
BRANCH   5  82
HETATM   82  C   UNK N   1      29.691  10.844   4.031  0.00  0.00     0.241 C 
HETATM   83  O   UNK N   1      29.887  11.817   3.323  0.00  0.00    -0.271 OA
HETATM   84  N   UNK N   1      28.441  10.403   4.324  0.00  0.00    -0.350 N 
HETATM   85  H   UNK N   1      28.383   9.780   5.084  0.00  0.00     0.163 HD
BRANCH  84  86
HETATM   86  C   UNK N   1      27.184  10.715   3.684  0.00  0.00     0.136 C 
BRANCH  86  87
HETATM   87  C   UNK N   1      27.197  10.574   2.155  0.00  0.00     0.191 C 
BRANCH  87  88
HETATM   88  O   UNK N   1      27.430  11.790   1.506  0.00  0.00    -0.399 OA
HETATM   89  H   UNK N   1      27.787  12.691   1.511  0.00  0.00     0.209 HD
ENDBRANCH  87  88
ENDBRANCH  86  87
BRANCH  86  90
HETATM   90  C   UNK N   1      26.123   9.822   4.351  0.00  0.00     0.139 C 
HETATM   91  C   UNK N   1      25.069  10.598   5.134  0.00  0.00     0.041 C 
BRANCH  90  92
HETATM   92  O   UNK N   1      26.699   8.847   5.158  0.00  0.00    -0.394 OA
HETATM   93  H   UNK N   1      27.501   8.375   4.887  0.00  0.00     0.210 HD
ENDBRANCH  90  92
ENDBRANCH  86  90
ENDBRANCH  84  86
ENDBRANCH   5  82
BRANCH  18  94
HETATM   94  C   UNK N   1      35.950  10.758   7.236  0.00  0.00     0.075 C 
BRANCH  94  95
HETATM   95  C   UNK N   1      36.868  11.494   8.142  0.00  0.00    -0.028 A 
HETATM   96  C   UNK N   1      38.119  12.051   7.911  0.00  0.00     0.096 A 
HETATM   97  N   UNK N   1      38.538  12.692   9.039  0.00  0.00    -0.365 N 
HETATM   98  C   UNK N   1      37.559  12.524   9.939  0.00  0.00     0.042 A 
HETATM   99  H   UNK N   1      39.385  13.178   9.166  0.00  0.00     0.165 HD
HETATM  100  C   UNK N   1      36.534  11.789   9.429  0.00  0.00    -0.002 A 
HETATM  101  C   UNK N   1      37.503  13.027  11.241  0.00  0.00     0.030 A 
HETATM  102  C   UNK N   1      35.394  11.475  10.154  0.00  0.00     0.014 A 
HETATM  103  C   UNK N   1      35.309  11.955  11.470  0.00  0.00     0.001 A 
HETATM  104  C   UNK N   1      36.358  12.737  12.008  0.00  0.00     0.002 A 
ENDBRANCH  94  95
ENDBRANCH  18  94
BRANCH   1 105
HETATM  105  C   UNK N   1      30.593   7.049   7.446  0.00  0.00     0.146 C 
HETATM  106  C   UNK N   1      31.140   7.743   8.676  0.00  0.00     0.042 C 
BRANCH 105 107
HETATM  107  O   UNK N   1      30.830   5.675   7.547  0.00  0.00    -0.393 OA
HETATM  108  H   UNK N   1      30.345   5.031   7.006  0.00  0.00     0.210 HD
ENDBRANCH 105 107
ENDBRANCH   1 105
BRANCH  22 109
HETATM  109  C   UNK N   1      35.281   8.114   6.729  0.00  0.00     0.035 C 
BRANCH 109 110
HETATM  110  C   UNK N   1      34.737   7.276   7.881  0.00  0.00     0.004 C 
BRANCH 110 111
HETATM  111  C   UNK N   1      34.859   8.009   9.203  0.00  0.00     0.019 C 
BRANCH 111 112
HETATM  112  C   UNK N   1      35.836   7.294  10.120  0.00  0.00     0.111 C 
BRANCH 112 113
HETATM  113  N   UNK N   1      35.134   6.751  11.268  0.00  0.00    -0.430 N 
HETATM  114  H   UNK N   1      34.803   6.342  12.141  0.00  0.00     0.149 HD
HETATM  115  H   UNK N   1      34.202   6.916  10.888  0.00  0.00     0.149 HD
ENDBRANCH 112 113
ENDBRANCH 111 112
ENDBRANCH 110 111
ENDBRANCH 109 110
ENDBRANCH  22 109
TORSDOF 42
ENDMDL
MODEL 9
REMARK VINA RESULT:      -5.5      4.319     11.886
REMARK WARNING: 32 MAX_TORS EXCEEDED!!!
REMARK  42 active torsions:
REMARK  status: ('A' for Active; 'I' for Inactive)
REMARK    1  A    between atoms: C_3  and  C_2 
REMARK    2  A    between atoms: C_2  and  O_97 
REMARK    3  A    between atoms: C_7  and  C_88 
REMARK    4  A    between atoms: C_12  and  N_50 
REMARK    5  A    between atoms: C_16  and  C_43 
REMARK    6  A    between atoms: C_20  and  C_33 
REMARK    7  A    between atoms: C_24  and  C_28 
REMARK    8  A    between atoms: C_28  and  C_29 
REMARK    9  A    between atoms: C_29  and  C_30 
REMARK   10  A    between atoms: C_30  and  C_31 
REMARK   11  A    between atoms: C_31  and  N_32 
REMARK   12  A    between atoms: C_33  and  C_34 
REMARK   13  A    between atoms: C_43  and  C_44 
REMARK       I    between atoms: N_50  and  C_51 
REMARK   14  A    between atoms: C_51  and  C_53 
REMARK   15  A    between atoms: C_53  and  C_54 
REMARK   16  A    between atoms: C_53  and  N_61 
REMARK   17  A    between atoms: C_54  and  C_55 
REMARK       I    between atoms: N_61  and  C_62 
REMARK   18  A    between atoms: C_62  and  C_64 
REMARK   19  A    between atoms: C_64  and  N_65 
REMARK   20  A    between atoms: N_65  and  C_66 
REMARK   21  A    between atoms: N_65  and  C_84 
REMARK   22  A    between atoms: C_66  and  C_67 
REMARK   23  A    between atoms: C_67  and  N_68 
REMARK   24  A    between atoms: N_68  and  C_69 
REMARK   25  A    between atoms: N_68  and  C_80 
REMARK   26  A    between atoms: C_69  and  C_70 
REMARK   27  A    between atoms: C_70  and  N_71 
REMARK   28  A    between atoms: N_71  and  C_72 
REMARK   29  A    between atoms: N_71  and  C_76 
REMARK   30  A    between atoms: C_72  and  C_73 
REMARK   31  A    between atoms: C_73  and  O_75 
REMARK   32  A    between atoms: C_76  and  C_77 
REMARK   33  A    between atoms: C_77  and  O_79 
REMARK   34  A    between atoms: C_80  and  C_81 
REMARK   35  A    between atoms: C_81  and  O_83 
REMARK   36  A    between atoms: C_84  and  C_85 
REMARK   37  A    between atoms: C_85  and  O_87 
REMARK       I    between atoms: C_88  and  N_90 
REMARK   38  A    between atoms: C_91  and  N_90 
REMARK   39  A    between atoms: C_91  and  C_92 
REMARK   40  A    between atoms: C_91  and  C_94 
REMARK   41  A    between atoms: C_92  and  O_93 
REMARK   42  A    between atoms: C_94  and  O_96 
ROOT
HETATM    1  C   UNK N   1      32.656  16.167   7.609  0.00  0.00     0.205 C 
HETATM    2  C   UNK N   1      33.976  16.010   8.291  0.00  0.00     0.243 C 
HETATM    3  O   UNK N   1      34.362  16.858   9.081  0.00  0.00    -0.271 OA
HETATM    4  N   UNK N   1      34.848  15.088   7.849  0.00  0.00    -0.345 N 
HETATM    5  C   UNK N   1      34.446  13.924   7.101  0.00  0.00     0.186 C 
HETATM    6  C   UNK N   1      34.781  14.034   5.611  0.00  0.00     0.120 C 
HETATM    7  S   UNK N   1      36.537  14.080   5.171  0.00  0.00    -0.095 SA
HETATM    8  S   UNK N   1      36.105  13.044   3.356  0.00  0.00    -0.095 SA
HETATM    9  C   UNK N   1      36.396  11.422   4.116  0.00  0.00     0.120 C 
HETATM   10  C   UNK N   1      35.178  10.499   4.124  0.00  0.00     0.186 C 
HETATM   11  C   UNK N   1      34.926   9.578   2.955  0.00  0.00     0.242 C 
HETATM   12  O   UNK N   1      35.783   8.765   2.656  0.00  0.00    -0.271 OA
HETATM   13  N   UNK N   1      33.749   9.562   2.282  0.00  0.00    -0.346 N 
HETATM   14  C   UNK N   1      32.676  10.523   2.467  0.00  0.00     0.180 C 
HETATM   15  C   UNK N   1      33.158  11.904   2.049  0.00  0.00     0.241 C 
HETATM   16  O   UNK N   1      34.103  11.983   1.277  0.00  0.00    -0.271 OA
HETATM   17  N   UNK N   1      32.653  13.051   2.582  0.00  0.00    -0.346 N 
HETATM   18  C   UNK N   1      31.430  13.097   3.351  0.00  0.00     0.181 C 
HETATM   19  C   UNK N   1      31.563  13.504   4.815  0.00  0.00     0.241 C 
HETATM   20  O   UNK N   1      31.203  12.687   5.640  0.00  0.00    -0.271 OA
HETATM   21  N   UNK N   1      31.958  14.738   5.273  0.00  0.00    -0.346 N 
HETATM   22  C   UNK N   1      32.324  15.908   4.489  0.00  0.00     0.176 C 
HETATM   23  C   UNK N   1      32.902  17.077   5.281  0.00  0.00     0.241 C 
HETATM   24  O   UNK N   1      33.352  18.009   4.635  0.00  0.00    -0.271 OA
HETATM   25  N   UNK N   1      32.916  17.193   6.636  0.00  0.00    -0.344 N 
HETATM   26  H   UNK N   1      35.804  15.214   8.044  0.00  0.00     0.163 HD
HETATM   27  H   UNK N   1      33.612   8.847   1.618  0.00  0.00     0.163 HD
HETATM   28  H   UNK N   1      33.146  13.892   2.438  0.00  0.00     0.163 HD
HETATM   29  H   UNK N   1      31.998  14.844   6.250  0.00  0.00     0.163 HD
HETATM   30  H   UNK N   1      33.130  18.085   6.992  0.00  0.00     0.163 HD
ENDROOT
BRANCH  10  31
HETATM   31  N   UNK N   1      34.005  10.942   4.851  0.00  0.00    -0.345 N 
HETATM   32  C   UNK N   1      33.403  10.149   5.777  0.00  0.00     0.241 C 
HETATM   33  O   UNK N   1      32.416  10.548   6.370  0.00  0.00    -0.271 OA
HETATM   34  H   UNK N   1      33.636  11.836   4.669  0.00  0.00     0.163 HD
BRANCH  32  35
HETATM   35  C   UNK N   1      33.987   8.831   6.168  0.00  0.00     0.180 C 
BRANCH  35  36
HETATM   36  C   UNK N   1      33.772   7.742   5.109  0.00  0.00     0.073 C 
BRANCH  36  37
HETATM   37  C   UNK N   1      32.379   7.186   5.064  0.00  0.00    -0.056 A 
HETATM   38  C   UNK N   1      31.798   6.842   3.835  0.00  0.00     0.007 A 
HETATM   39  C   UNK N   1      30.495   6.351   3.779  0.00  0.00     0.001 A 
HETATM   40  C   UNK N   1      29.757   6.212   4.956  0.00  0.00     0.000 A 
HETATM   41  C   UNK N   1      30.326   6.565   6.184  0.00  0.00     0.001 A 
HETATM   42  C   UNK N   1      31.635   7.055   6.239  0.00  0.00     0.007 A 
ENDBRANCH  36  37
ENDBRANCH  35  36
BRANCH  35  43
HETATM   43  N   UNK N   1      35.378   9.065   6.449  0.00  0.00    -0.346 N 
HETATM   44  C   UNK N   1      35.921   8.680   7.611  0.00  0.00     0.235 C 
HETATM   45  O   UNK N   1      37.097   8.916   7.825  0.00  0.00    -0.272 OA
HETATM   46  H   UNK N   1      35.939   9.515   5.777  0.00  0.00     0.163 HD
BRANCH  44  47
HETATM   47  C   UNK N   1      35.073   7.983   8.637  0.00  0.00     0.220 C 
BRANCH  47  48
HETATM   48  N   UNK N   1      34.558   8.891   9.661  0.00  0.00    -0.393 N 
BRANCH  48  49
HETATM   49  C   UNK N   1      35.553   9.269  10.661  0.00  0.00     0.148 C 
BRANCH  49  50
HETATM   50  C   UNK N   1      34.892   9.895  11.888  0.00  0.00     0.292 C 
BRANCH  50  51
HETATM   51  N   UNK N   1      35.591   9.631  13.137  0.00  0.00     0.101 N 
BRANCH  51  52
HETATM   52  C   UNK N   1      35.846  10.832  13.920  0.00  0.00     0.303 C 
BRANCH  52  53
HETATM   53  C   UNK N   1      35.868  12.025  12.979  0.00  0.00     0.304 C 
BRANCH  53  54
HETATM   54  N   UNK N   1      35.615  13.251  13.740  0.00  0.00     0.110 N 
BRANCH  54  55
HETATM   55  C   UNK N   1      36.156  13.176  15.095  0.00  0.00     0.382 C 
BRANCH  55  56
HETATM   56  C   UNK N   1      35.074  13.355  16.121  0.00  0.00     0.169 C 
HETATM   57  O   UNK N   1      33.910  13.118  15.840  0.00  0.00    -0.649 OA
BRANCH  56  58
HETATM   58  O   UNK N   1      35.389  13.757  17.365  0.00  0.00    -0.775 OA
HETATM   59  H   UNK N   1      35.491  14.529  17.887  0.00  0.00     0.167 HD
ENDBRANCH  56  58
ENDBRANCH  55  56
ENDBRANCH  54  55
BRANCH  54  60
HETATM   60  C   UNK N   1      36.101  14.441  13.035  0.00  0.00     0.382 C 
BRANCH  60  61
HETATM   61  C   UNK N   1      35.366  14.737  11.758  0.00  0.00     0.169 C 
HETATM   62  O   UNK N   1      34.151  14.645  11.710  0.00  0.00    -0.649 OA
BRANCH  61  63
HETATM   63  O   UNK N   1      36.056  15.091  10.659  0.00  0.00    -0.775 OA
HETATM   64  H   UNK N   1      36.818  14.627  10.373  0.00  0.00     0.167 HD
ENDBRANCH  61  63
ENDBRANCH  60  61
ENDBRANCH  54  60
ENDBRANCH  53  54
ENDBRANCH  52  53
ENDBRANCH  51  52
BRANCH  51  65
HETATM   65  C   UNK N   1      36.785   8.823  12.961  0.00  0.00     0.381 C 
BRANCH  65  66
HETATM   66  C   UNK N   1      36.628   7.526  13.711  0.00  0.00     0.169 C 
HETATM   67  O   UNK N   1      37.019   6.485  13.212  0.00  0.00    -0.649 OA
BRANCH  66  68
HETATM   68  O   UNK N   1      36.044   7.501  14.925  0.00  0.00    -0.775 OA
HETATM   69  H   UNK N   1      35.559   6.977  15.533  0.00  0.00     0.167 HD
ENDBRANCH  66  68
ENDBRANCH  65  66
ENDBRANCH  51  65
ENDBRANCH  50  51
ENDBRANCH  49  50
ENDBRANCH  48  49
BRANCH  48  70
HETATM   70  C   UNK N   1      33.176   8.655  10.128  0.00  0.00     0.227 C 
BRANCH  70  71
HETATM   71  C   UNK N   1      32.122   9.564   9.541  0.00  0.00     0.157 C 
HETATM   72  O   UNK N   1      31.112   9.111   9.032  0.00  0.00    -0.649 OA
BRANCH  71  73
HETATM   73  O   UNK N   1      32.331  10.891   9.522  0.00  0.00    -0.775 OA
HETATM   74  H   UNK N   1      32.606  11.364  10.283  0.00  0.00     0.167 HD
ENDBRANCH  71  73
ENDBRANCH  70  71
ENDBRANCH  48  70
ENDBRANCH  47  48
ENDBRANCH  44  47
ENDBRANCH  35  43
ENDBRANCH  32  35
ENDBRANCH  10  31
BRANCH  14  75
HETATM   75  C   UNK N   1      31.381  10.059   1.769  0.00  0.00     0.073 C 
BRANCH  75  76
HETATM   76  C   UNK N   1      30.223   9.949   2.720  0.00  0.00    -0.056 A 
HETATM   77  C   UNK N   1      30.429  10.132   4.095  0.00  0.00     0.007 A 
HETATM   78  C   UNK N   1      29.382   9.915   4.997  0.00  0.00     0.001 A 
HETATM   79  C   UNK N   1      28.131   9.505   4.527  0.00  0.00     0.000 A 
HETATM   80  C   UNK N   1      27.925   9.321   3.157  0.00  0.00     0.001 A 
HETATM   81  C   UNK N   1      28.971   9.535   2.254  0.00  0.00     0.007 A 
ENDBRANCH  75  76
ENDBRANCH  14  75
BRANCH   5  82
HETATM   82  C   UNK N   1      35.054  12.816   7.870  0.00  0.00     0.241 C 
HETATM   83  O   UNK N   1      34.508  11.729   7.953  0.00  0.00    -0.271 OA
HETATM   84  N   UNK N   1      36.342  13.010   8.251  0.00  0.00    -0.350 N 
HETATM   85  H   UNK N   1      36.606  13.950   8.377  0.00  0.00     0.163 HD
BRANCH  84  86
HETATM   86  C   UNK N   1      37.381  12.038   8.502  0.00  0.00     0.136 C 
BRANCH  86  87
HETATM   87  C   UNK N   1      38.517  12.042   7.469  0.00  0.00     0.191 C 
BRANCH  87  88
HETATM   88  O   UNK N   1      39.315  10.898   7.546  0.00  0.00    -0.399 OA
HETATM   89  H   UNK N   1      39.584  10.088   8.007  0.00  0.00     0.209 HD
ENDBRANCH  87  88
ENDBRANCH  86  87
BRANCH  86  90
HETATM   90  C   UNK N   1      37.883  12.298   9.933  0.00  0.00     0.139 C 
HETATM   91  C   UNK N   1      38.908  13.422  10.032  0.00  0.00     0.041 C 
BRANCH  90  92
HETATM   92  O   UNK N   1      38.379  11.143  10.527  0.00  0.00    -0.394 OA
HETATM   93  H   UNK N   1      39.325  10.930  10.508  0.00  0.00     0.210 HD
ENDBRANCH  90  92
ENDBRANCH  86  90
ENDBRANCH  84  86
ENDBRANCH   5  82
BRANCH  18  94
HETATM   94  C   UNK N   1      30.451  14.026   2.691  0.00  0.00     0.075 C 
BRANCH  94  95
HETATM   95  C   UNK N   1      29.116  13.505   2.301  0.00  0.00    -0.028 A 
HETATM   96  C   UNK N   1      28.648  13.028   1.084  0.00  0.00     0.096 A 
HETATM   97  N   UNK N   1      27.366  12.592   1.239  0.00  0.00    -0.365 N 
HETATM   98  C   UNK N   1      27.062  12.803   2.528  0.00  0.00     0.042 A 
HETATM   99  H   UNK N   1      26.783  12.202   0.548  0.00  0.00     0.165 HD
HETATM  100  C   UNK N   1      28.101  13.370   3.198  0.00  0.00    -0.002 A 
HETATM  101  C   UNK N   1      25.870  12.488   3.184  0.00  0.00     0.030 A 
HETATM  102  C   UNK N   1      28.048  13.686   4.548  0.00  0.00     0.014 A 
HETATM  103  C   UNK N   1      26.862  13.393   5.237  0.00  0.00     0.001 A 
HETATM  104  C   UNK N   1      25.778  12.787   4.558  0.00  0.00     0.002 A 
ENDBRANCH  94  95
ENDBRANCH  18  94
BRANCH   1 105
HETATM  105  C   UNK N   1      31.542  16.560   8.598  0.00  0.00     0.146 C 
HETATM  106  C   UNK N   1      31.381  18.062   8.692  0.00  0.00     0.042 C 
BRANCH 105 107
HETATM  107  O   UNK N   1      31.781  16.039   9.873  0.00  0.00    -0.393 OA
HETATM  108  H   UNK N   1      31.839  15.084  10.033  0.00  0.00     0.210 HD
ENDBRANCH 105 107
ENDBRANCH   1 105
BRANCH  22 109
HETATM  109  C   UNK N   1      31.118  16.499   3.756  0.00  0.00     0.035 C 
BRANCH 109 110
HETATM  110  C   UNK N   1      29.988  16.860   4.714  0.00  0.00     0.004 C 
BRANCH 110 111
HETATM  111  C   UNK N   1      28.816  17.479   3.978  0.00  0.00     0.019 C 
BRANCH 111 112
HETATM  112  C   UNK N   1      28.302  18.698   4.724  0.00  0.00     0.111 C 
BRANCH 112 113
HETATM  113  N   UNK N   1      27.839  19.700   3.782  0.00  0.00    -0.430 N 
HETATM  114  H   UNK N   1      27.498  20.508   3.262  0.00  0.00     0.149 HD
HETATM  115  H   UNK N   1      27.934  19.101   2.963  0.00  0.00     0.149 HD
ENDBRANCH 112 113
ENDBRANCH 111 112
ENDBRANCH 110 111
ENDBRANCH 109 110
ENDBRANCH  22 109
TORSDOF 42
ENDMDL
