MODEL 1
REMARK VINA RESULT:      -7.3      0.000      0.000
REMARK  2 active torsions:
REMARK  status: ('A' for Active; 'I' for Inactive)
REMARK    1  A    between atoms: C_6  and  O_8 
REMARK    2  A    between atoms: O_8  and  C_9 
ROOT
HETATM    1  C   UNK N   1      25.758  27.337  -3.696  0.00  0.00     0.048 C 
HETATM    2  C   UNK N   1      26.335  26.156  -4.391  0.00  0.00    -0.057 A 
HETATM    3  C   UNK N   1      25.589  25.483  -5.355  0.00  0.00     0.044 A 
HETATM    4  C   UNK N   1      26.127  24.381  -6.022  0.00  0.00     0.084 A 
HETATM    5  C   UNK N   1      27.431  23.943  -5.733  0.00  0.00     0.038 A 
HETATM    6  C   UNK N   1      28.185  24.616  -4.732  0.00  0.00     0.093 A 
HETATM    7  C   UNK N   1      27.620  25.722  -4.076  0.00  0.00     0.045 A 
HETATM    8  C   UNK N   1      27.961  22.775  -6.491  0.00  0.00    -0.037 A 
HETATM    9  C   UNK N   1      27.180  22.155  -7.415  0.00  0.00    -0.039 A 
HETATM   10  C   UNK N   1      27.684  20.945  -8.193  0.00  0.00     0.038 C 
HETATM   11  C   UNK N   1      29.137  20.540  -7.923  0.00  0.00     0.009 C 
HETATM   12  C   UNK N   1      29.508  20.804  -6.478  0.00  0.00    -0.014 C 
HETATM   13  C   UNK N   1      29.371  22.291  -6.251  0.00  0.00     0.044 C 
HETATM   14  C   UNK N   1      30.948  20.405  -6.233  0.00  0.00     0.010 C 
HETATM   15  C   UNK N   1      25.760  22.638  -7.693  0.00  0.00     0.084 A 
HETATM   16  O   UNK N   1      25.373  23.743  -6.948  0.00  0.00    -0.335 OA
HETATM   17  C   UNK N   1      24.787  21.508  -7.399  0.00  0.00     0.051 C 
HETATM   18  C   UNK N   1      25.639  23.003  -9.161  0.00  0.00     0.051 C 
ENDROOT
BRANCH   6  19
HETATM   19  O   UNK N   1      29.434  24.171  -4.420  0.00  0.00    -0.278 OA
BRANCH  19  20
HETATM   20  C   UNK N   1      30.055  24.146  -3.212  0.00  0.00     0.260 C 
HETATM   21  O   UNK N   1      30.845  25.013  -2.878  0.00  0.00    -0.265 OA
HETATM   22  C   UNK N   1      29.744  23.035  -2.269  0.00  0.00     0.126 C 
ENDBRANCH  19  20
ENDBRANCH   6  19
TORSDOF 2
ENDMDL
MODEL 2
REMARK VINA RESULT:      -7.1      1.222      4.570
REMARK  2 active torsions:
REMARK  status: ('A' for Active; 'I' for Inactive)
REMARK    1  A    between atoms: C_6  and  O_8 
REMARK    2  A    between atoms: O_8  and  C_9 
ROOT
HETATM    1  C   UNK N   1      24.764  27.270  -5.552  0.00  0.00     0.048 C 
HETATM    2  C   UNK N   1      25.743  26.155  -5.624  0.00  0.00    -0.057 A 
HETATM    3  C   UNK N   1      26.666  25.971  -4.597  0.00  0.00     0.044 A 
HETATM    4  C   UNK N   1      27.581  24.917  -4.650  0.00  0.00     0.084 A 
HETATM    5  C   UNK N   1      27.576  24.026  -5.737  0.00  0.00     0.038 A 
HETATM    6  C   UNK N   1      26.649  24.226  -6.796  0.00  0.00     0.093 A 
HETATM    7  C   UNK N   1      25.739  25.294  -6.719  0.00  0.00     0.045 A 
HETATM    8  C   UNK N   1      28.561  22.908  -5.729  0.00  0.00    -0.037 A 
HETATM    9  C   UNK N   1      29.442  22.787  -4.701  0.00  0.00    -0.039 A 
HETATM   10  C   UNK N   1      30.476  21.668  -4.673  0.00  0.00     0.038 C 
HETATM   11  C   UNK N   1      30.394  20.659  -5.824  0.00  0.00     0.009 C 
HETATM   12  C   UNK N   1      29.950  21.339  -7.103  0.00  0.00    -0.014 C 
HETATM   13  C   UNK N   1      28.570  21.896  -6.850  0.00  0.00     0.044 C 
HETATM   14  C   UNK N   1      29.868  20.326  -8.224  0.00  0.00     0.010 C 
HETATM   15  C   UNK N   1      29.440  23.782  -3.545  0.00  0.00     0.084 A 
HETATM   16  O   UNK N   1      28.471  24.772  -3.640  0.00  0.00    -0.335 OA
HETATM   17  C   UNK N   1      30.798  24.460  -3.472  0.00  0.00     0.051 C 
HETATM   18  C   UNK N   1      29.210  23.032  -2.245  0.00  0.00     0.051 C 
ENDROOT
BRANCH   6  19
HETATM   19  O   UNK N   1      26.667  23.389  -7.870  0.00  0.00    -0.278 OA
BRANCH  19  20
HETATM   20  C   UNK N   1      25.621  22.842  -8.545  0.00  0.00     0.260 C 
HETATM   21  O   UNK N   1      25.276  23.257  -9.639  0.00  0.00    -0.265 OA
HETATM   22  C   UNK N   1      24.895  21.694  -7.933  0.00  0.00     0.126 C 
ENDBRANCH  19  20
ENDBRANCH   6  19
TORSDOF 2
ENDMDL
MODEL 3
REMARK VINA RESULT:      -7.1      1.340      6.365
REMARK  2 active torsions:
REMARK  status: ('A' for Active; 'I' for Inactive)
REMARK    1  A    between atoms: C_6  and  O_8 
REMARK    2  A    between atoms: O_8  and  C_9 
ROOT
HETATM    1  C   UNK N   1      29.851  18.694  -8.220  0.00  0.00     0.048 C 
HETATM    2  C   UNK N   1      29.398  19.942  -7.554  0.00  0.00    -0.057 A 
HETATM    3  C   UNK N   1      30.097  20.440  -6.456  0.00  0.00     0.044 A 
HETATM    4  C   UNK N   1      29.686  21.619  -5.832  0.00  0.00     0.084 A 
HETATM    5  C   UNK N   1      28.565  22.321  -6.309  0.00  0.00     0.038 A 
HETATM    6  C   UNK N   1      27.838  21.802  -7.415  0.00  0.00     0.093 A 
HETATM    7  C   UNK N   1      28.272  20.614  -8.025  0.00  0.00     0.045 A 
HETATM    8  C   UNK N   1      28.186  23.585  -5.616  0.00  0.00    -0.037 A 
HETATM    9  C   UNK N   1      28.905  24.014  -4.545  0.00  0.00    -0.039 A 
HETATM   10  C   UNK N   1      28.531  25.291  -3.801  0.00  0.00     0.038 C 
HETATM   11  C   UNK N   1      27.360  26.084  -4.391  0.00  0.00     0.009 C 
HETATM   12  C   UNK N   1      26.331  25.152  -4.998  0.00  0.00    -0.014 C 
HETATM   13  C   UNK N   1      27.018  24.402  -6.114  0.00  0.00     0.044 C 
HETATM   14  C   UNK N   1      25.188  25.954  -5.581  0.00  0.00     0.010 C 
HETATM   15  C   UNK N   1      30.103  23.219  -4.035  0.00  0.00     0.084 A 
HETATM   16  O   UNK N   1      30.382  22.070  -4.762  0.00  0.00    -0.335 OA
HETATM   17  C   UNK N   1      29.850  22.813  -2.593  0.00  0.00     0.051 C 
HETATM   18  C   UNK N   1      31.337  24.103  -4.073  0.00  0.00     0.051 C 
ENDROOT
BRANCH   6  19
HETATM   19  O   UNK N   1      26.728  22.459  -7.855  0.00  0.00    -0.278 OA
BRANCH  19  20
HETATM   20  C   UNK N   1      25.530  21.947  -8.241  0.00  0.00     0.260 C 
HETATM   21  O   UNK N   1      25.187  21.930  -9.411  0.00  0.00    -0.265 OA
HETATM   22  C   UNK N   1      24.624  21.379  -7.203  0.00  0.00     0.126 C 
ENDBRANCH  19  20
ENDBRANCH   6  19
TORSDOF 2
ENDMDL
MODEL 4
REMARK VINA RESULT:      -6.8     15.395     17.437
REMARK  2 active torsions:
REMARK  status: ('A' for Active; 'I' for Inactive)
REMARK    1  A    between atoms: C_6  and  O_8 
REMARK    2  A    between atoms: O_8  and  C_9 
ROOT
HETATM    1  C   UNK N   1      20.761  12.307  11.307  0.00  0.00     0.048 C 
HETATM    2  C   UNK N   1      21.161  13.165  10.161  0.00  0.00    -0.057 A 
HETATM    3  C   UNK N   1      22.415  13.006   9.577  0.00  0.00     0.044 A 
HETATM    4  C   UNK N   1      22.794  13.798   8.492  0.00  0.00     0.084 A 
HETATM    5  C   UNK N   1      21.911  14.761   7.972  0.00  0.00     0.038 A 
HETATM    6  C   UNK N   1      20.639  14.939   8.583  0.00  0.00     0.093 A 
HETATM    7  C   UNK N   1      20.282  14.129   9.673  0.00  0.00     0.045 A 
HETATM    8  C   UNK N   1      22.361  15.563   6.800  0.00  0.00    -0.037 A 
HETATM    9  C   UNK N   1      23.602  15.366   6.280  0.00  0.00    -0.039 A 
HETATM   10  C   UNK N   1      24.101  16.184   5.094  0.00  0.00     0.038 C 
HETATM   11  C   UNK N   1      23.090  17.164   4.491  0.00  0.00     0.009 C 
HETATM   12  C   UNK N   1      22.190  17.737   5.567  0.00  0.00    -0.014 C 
HETATM   13  C   UNK N   1      21.436  16.579   6.175  0.00  0.00     0.044 C 
HETATM   14  C   UNK N   1      21.195  18.697   4.951  0.00  0.00     0.010 C 
HETATM   15  C   UNK N   1      24.548  14.330   6.878  0.00  0.00     0.084 A 
HETATM   16  O   UNK N   1      24.024  13.626   7.953  0.00  0.00    -0.335 OA
HETATM   17  C   UNK N   1      25.814  15.028   7.346  0.00  0.00     0.051 C 
HETATM   18  C   UNK N   1      24.926  13.325   5.805  0.00  0.00     0.051 C 
ENDROOT
BRANCH   6  19
HETATM   19  O   UNK N   1      19.795  15.897   8.108  0.00  0.00    -0.278 OA
BRANCH  19  20
HETATM   20  C   UNK N   1      18.988  16.745   8.799  0.00  0.00     0.260 C 
HETATM   21  O   UNK N   1      17.879  16.408   9.178  0.00  0.00    -0.265 OA
HETATM   22  C   UNK N   1      19.487  18.113   9.112  0.00  0.00     0.126 C 
ENDBRANCH  19  20
ENDBRANCH   6  19
TORSDOF 2
ENDMDL
MODEL 5
REMARK VINA RESULT:      -6.7      1.305      4.673
REMARK  2 active torsions:
REMARK  status: ('A' for Active; 'I' for Inactive)
REMARK    1  A    between atoms: C_6  and  O_8 
REMARK    2  A    between atoms: O_8  and  C_9 
ROOT
HETATM    1  C   UNK N   1      30.787  20.019  -6.632  0.00  0.00     0.048 C 
HETATM    2  C   UNK N   1      29.888  21.180  -6.402  0.00  0.00    -0.057 A 
HETATM    3  C   UNK N   1      29.064  21.637  -7.428  0.00  0.00     0.044 A 
HETATM    4  C   UNK N   1      28.208  22.719  -7.216  0.00  0.00     0.084 A 
HETATM    5  C   UNK N   1      28.162  23.355  -5.963  0.00  0.00     0.038 A 
HETATM    6  C   UNK N   1      29.019  22.902  -4.922  0.00  0.00     0.093 A 
HETATM    7  C   UNK N   1      29.871  21.812  -5.161  0.00  0.00     0.045 A 
HETATM    8  C   UNK N   1      27.213  24.491  -5.789  0.00  0.00    -0.037 A 
HETATM    9  C   UNK N   1      26.441  24.895  -6.832  0.00  0.00    -0.039 A 
HETATM   10  C   UNK N   1      25.476  26.067  -6.694  0.00  0.00     0.038 C 
HETATM   11  C   UNK N   1      25.381  26.687  -5.296  0.00  0.00     0.009 C 
HETATM   12  C   UNK N   1      26.721  26.637  -4.593  0.00  0.00    -0.014 C 
HETATM   13  C   UNK N   1      27.092  25.180  -4.451  0.00  0.00     0.044 C 
HETATM   14  C   UNK N   1      26.605  27.247  -3.213  0.00  0.00     0.010 C 
HETATM   15  C   UNK N   1      26.528  24.202  -8.188  0.00  0.00     0.084 A 
HETATM   16  O   UNK N   1      27.427  23.146  -8.237  0.00  0.00    -0.335 OA
HETATM   17  C   UNK N   1      26.940  25.219  -9.239  0.00  0.00     0.051 C 
HETATM   18  C   UNK N   1      25.158  23.662  -8.558  0.00  0.00     0.051 C 
ENDROOT
BRANCH   6  19
HETATM   19  O   UNK N   1      29.007  23.540  -3.719  0.00  0.00    -0.278 OA
BRANCH  19  20
HETATM   20  C   UNK N   1      30.046  24.072  -3.022  0.00  0.00     0.260 C 
HETATM   21  O   UNK N   1      30.495  23.530  -2.027  0.00  0.00    -0.265 OA
HETATM   22  C   UNK N   1      30.657  25.342  -3.505  0.00  0.00     0.126 C 
ENDBRANCH  19  20
ENDBRANCH   6  19
TORSDOF 2
ENDMDL
MODEL 6
REMARK VINA RESULT:      -6.6     11.972     14.574
REMARK  2 active torsions:
REMARK  status: ('A' for Active; 'I' for Inactive)
REMARK    1  A    between atoms: C_6  and  O_8 
REMARK    2  A    between atoms: O_8  and  C_9 
ROOT
HETATM    1  C   UNK N   1      34.627  17.140   9.324  0.00  0.00     0.048 C 
HETATM    2  C   UNK N   1      33.508  17.150   8.347  0.00  0.00    -0.057 A 
HETATM    3  C   UNK N   1      33.696  16.631   7.068  0.00  0.00     0.044 A 
HETATM    4  C   UNK N   1      32.646  16.625   6.147  0.00  0.00     0.084 A 
HETATM    5  C   UNK N   1      31.386  17.137   6.503  0.00  0.00     0.038 A 
HETATM    6  C   UNK N   1      31.201  17.689   7.801  0.00  0.00     0.093 A 
HETATM    7  C   UNK N   1      32.273  17.682   8.708  0.00  0.00     0.045 A 
HETATM    8  C   UNK N   1      30.298  17.086   5.486  0.00  0.00    -0.037 A 
HETATM    9  C   UNK N   1      30.547  16.572   4.252  0.00  0.00    -0.039 A 
HETATM   10  C   UNK N   1      29.461  16.524   3.182  0.00  0.00     0.038 C 
HETATM   11  C   UNK N   1      28.075  17.008   3.621  0.00  0.00     0.009 C 
HETATM   12  C   UNK N   1      28.193  18.136   4.625  0.00  0.00    -0.014 C 
HETATM   13  C   UNK N   1      28.914  17.582   5.830  0.00  0.00     0.044 C 
HETATM   14  C   UNK N   1      26.815  18.595   5.051  0.00  0.00     0.010 C 
HETATM   15  C   UNK N   1      31.929  16.044   3.886  0.00  0.00     0.084 A 
HETATM   16  O   UNK N   1      32.864  16.121   4.909  0.00  0.00    -0.335 OA
HETATM   17  C   UNK N   1      32.464  16.833   2.702  0.00  0.00     0.051 C 
HETATM   18  C   UNK N   1      31.811  14.588   3.475  0.00  0.00     0.051 C 
ENDROOT
BRANCH   6  19
HETATM   19  O   UNK N   1      29.993  18.222   8.136  0.00  0.00    -0.278 OA
BRANCH  19  20
HETATM   20  C   UNK N   1      29.338  18.174   9.326  0.00  0.00     0.260 C 
HETATM   21  O   UNK N   1      29.662  18.880  10.266  0.00  0.00    -0.265 OA
HETATM   22  C   UNK N   1      28.184  17.244   9.471  0.00  0.00     0.126 C 
ENDBRANCH  19  20
ENDBRANCH   6  19
TORSDOF 2
ENDMDL
MODEL 7
REMARK VINA RESULT:      -6.5      1.927      3.653
REMARK  2 active torsions:
REMARK  status: ('A' for Active; 'I' for Inactive)
REMARK    1  A    between atoms: C_6  and  O_8 
REMARK    2  A    between atoms: O_8  and  C_9 
ROOT
HETATM    1  C   UNK N   1      25.809  24.467  -6.003  0.00  0.00     0.048 C 
HETATM    2  C   UNK N   1      27.078  23.701  -5.892  0.00  0.00    -0.057 A 
HETATM    3  C   UNK N   1      27.401  22.746  -6.854  0.00  0.00     0.044 A 
HETATM    4  C   UNK N   1      28.597  22.032  -6.765  0.00  0.00     0.084 A 
HETATM    5  C   UNK N   1      29.492  22.272  -5.708  0.00  0.00     0.038 A 
HETATM    6  C   UNK N   1      29.152  23.231  -4.714  0.00  0.00     0.093 A 
HETATM    7  C   UNK N   1      27.943  23.936  -4.826  0.00  0.00     0.045 A 
HETATM    8  C   UNK N   1      30.762  21.494  -5.676  0.00  0.00    -0.037 A 
HETATM    9  C   UNK N   1      31.016  20.571  -6.641  0.00  0.00    -0.039 A 
HETATM   10  C   UNK N   1      32.296  19.743  -6.626  0.00  0.00     0.038 C 
HETATM   11  C   UNK N   1      33.294  20.084  -5.515  0.00  0.00     0.009 C 
HETATM   12  C   UNK N   1      32.570  20.503  -4.252  0.00  0.00    -0.014 C 
HETATM   13  C   UNK N   1      31.779  21.745  -4.588  0.00  0.00     0.044 C 
HETATM   14  C   UNK N   1      33.571  20.842  -3.170  0.00  0.00     0.010 C 
HETATM   15  C   UNK N   1      30.016  20.314  -7.764  0.00  0.00     0.084 A 
HETATM   16  O   UNK N   1      28.877  21.104  -7.711  0.00  0.00    -0.335 OA
HETATM   17  C   UNK N   1      29.581  18.858  -7.717  0.00  0.00     0.051 C 
HETATM   18  C   UNK N   1      30.694  20.567  -9.098  0.00  0.00     0.051 C 
ENDROOT
BRANCH   6  19
HETATM   19  O   UNK N   1      29.997  23.438  -3.667  0.00  0.00    -0.278 OA
BRANCH  19  20
HETATM   20  C   UNK N   1      29.836  23.106  -2.359  0.00  0.00     0.260 C 
HETATM   21  O   UNK N   1      30.789  22.903  -1.626  0.00  0.00    -0.265 OA
HETATM   22  C   UNK N   1      28.454  23.005  -1.810  0.00  0.00     0.126 C 
ENDBRANCH  19  20
ENDBRANCH   6  19
TORSDOF 2
ENDMDL
MODEL 8
REMARK VINA RESULT:      -6.5     12.371     14.509
REMARK  2 active torsions:
REMARK  status: ('A' for Active; 'I' for Inactive)
REMARK    1  A    between atoms: C_6  and  O_8 
REMARK    2  A    between atoms: O_8  and  C_9 
ROOT
HETATM    1  C   UNK N   1      26.868  14.399   2.720  0.00  0.00     0.048 C 
HETATM    2  C   UNK N   1      27.814  15.004   3.694  0.00  0.00    -0.057 A 
HETATM    3  C   UNK N   1      27.330  15.768   4.753  0.00  0.00     0.044 A 
HETATM    4  C   UNK N   1      28.210  16.328   5.680  0.00  0.00     0.084 A 
HETATM    5  C   UNK N   1      29.596  16.123   5.559  0.00  0.00     0.038 A 
HETATM    6  C   UNK N   1      30.092  15.361   4.465  0.00  0.00     0.093 A 
HETATM    7  C   UNK N   1      29.186  14.808   3.547  0.00  0.00     0.045 A 
HETATM    8  C   UNK N   1      30.486  16.728   6.590  0.00  0.00    -0.037 A 
HETATM    9  C   UNK N   1      29.951  17.470   7.595  0.00  0.00    -0.039 A 
HETATM   10  C   UNK N   1      30.835  18.121   8.654  0.00  0.00     0.038 C 
HETATM   11  C   UNK N   1      32.332  17.810   8.550  0.00  0.00     0.009 C 
HETATM   12  C   UNK N   1      32.752  17.665   7.102  0.00  0.00    -0.014 C 
HETATM   13  C   UNK N   1      31.977  16.501   6.532  0.00  0.00     0.044 C 
HETATM   14  C   UNK N   1      34.230  17.352   7.022  0.00  0.00     0.010 C 
HETATM   15  C   UNK N   1      28.446  17.697   7.689  0.00  0.00     0.084 A 
HETATM   16  O   UNK N   1      27.708  17.074   6.693  0.00  0.00    -0.335 OA
HETATM   17  C   UNK N   1      28.163  19.188   7.621  0.00  0.00     0.051 C 
HETATM   18  C   UNK N   1      27.949  17.178   9.027  0.00  0.00     0.051 C 
ENDROOT
BRANCH   6  19
HETATM   19  O   UNK N   1      31.436  15.193   4.322  0.00  0.00    -0.278 OA
BRANCH  19  20
HETATM   20  C   UNK N   1      32.224  15.476   3.251  0.00  0.00     0.260 C 
HETATM   21  O   UNK N   1      32.682  14.597   2.541  0.00  0.00    -0.265 OA
HETATM   22  C   UNK N   1      32.515  16.902   2.933  0.00  0.00     0.126 C 
ENDBRANCH  19  20
ENDBRANCH   6  19
TORSDOF 2
ENDMDL
MODEL 9
REMARK VINA RESULT:      -6.4     12.070     14.579
REMARK  2 active torsions:
REMARK  status: ('A' for Active; 'I' for Inactive)
REMARK    1  A    between atoms: C_6  and  O_8 
REMARK    2  A    between atoms: O_8  and  C_9 
ROOT
HETATM    1  C   UNK N   1      29.341  18.689   9.440  0.00  0.00     0.048 C 
HETATM    2  C   UNK N   1      30.141  17.968   8.415  0.00  0.00    -0.057 A 
HETATM    3  C   UNK N   1      29.517  17.444   7.286  0.00  0.00     0.044 A 
HETATM    4  C   UNK N   1      30.262  16.777   6.312  0.00  0.00     0.084 A 
HETATM    5  C   UNK N   1      31.653  16.632   6.457  0.00  0.00     0.038 A 
HETATM    6  C   UNK N   1      32.288  17.147   7.621  0.00  0.00     0.093 A 
HETATM    7  C   UNK N   1      31.515  17.814   8.586  0.00  0.00     0.045 A 
HETATM    8  C   UNK N   1      32.400  15.930   5.376  0.00  0.00    -0.037 A 
HETATM    9  C   UNK N   1      31.731  15.434   4.301  0.00  0.00    -0.039 A 
HETATM   10  C   UNK N   1      32.462  14.692   3.188  0.00  0.00     0.038 C 
HETATM   11  C   UNK N   1      33.986  14.623   3.326  0.00  0.00     0.009 C 
HETATM   12  C   UNK N   1      34.390  14.528   4.783  0.00  0.00    -0.014 C 
HETATM   13  C   UNK N   1      33.900  15.785   5.460  0.00  0.00     0.044 C 
HETATM   14  C   UNK N   1      35.898  14.468   4.899  0.00  0.00     0.010 C 
HETATM   15  C   UNK N   1      30.218  15.586   4.181  0.00  0.00     0.084 A 
HETATM   16  O   UNK N   1      29.623  16.272   5.230  0.00  0.00    -0.335 OA
HETATM   17  C   UNK N   1      29.586  14.206   4.104  0.00  0.00     0.051 C 
HETATM   18  C   UNK N   1      29.895  16.331   2.898  0.00  0.00     0.051 C 
ENDROOT
BRANCH   6  19
HETATM   19  O   UNK N   1      33.629  16.974   7.785  0.00  0.00    -0.278 OA
BRANCH  19  20
HETATM   20  C   UNK N   1      34.486  17.654   8.592  0.00  0.00     0.260 C 
HETATM   21  O   UNK N   1      34.866  18.780   8.320  0.00  0.00    -0.265 OA
HETATM   22  C   UNK N   1      34.955  17.004   9.848  0.00  0.00     0.126 C 
ENDBRANCH  19  20
ENDBRANCH   6  19
TORSDOF 2
ENDMDL
