REMARK  5 active torsions:
REMARK  status: ('A' for Active; 'I' for Inactive)
REMARK    1  A    between atoms: C_3  and  C_15 
REMARK    2  A    between atoms: N_7  and  O_10 
REMARK    3  A    between atoms: O_10  and  S_11 
REMARK    4  A    between atoms: S_11  and  O_14 
REMARK       I    between atoms: C_15  and  N_17 
REMARK    5  A    between atoms: N_17  and  C_18 
ROOT
HETATM    1  C   UNK N   1       2.012  -1.054  -0.367  0.00  0.00     0.031 C 
HETATM    2  C   UNK N   1       2.859  -0.038   0.516  0.00  0.00     0.032 C 
HETATM    3  C   UNK N   1       2.831   1.456   0.018  0.00  0.00     0.159 C 
HETATM    4  N   UNK N   1       1.583   1.621  -0.680  0.00  0.00    -0.217 NA
HETATM    5  C   UNK N   1       1.497   0.751  -1.829  0.00  0.00     0.129 C 
HETATM    6  C   UNK N   1       0.807  -0.445  -1.184  0.00  0.00     0.134 C 
HETATM    7  N   UNK N   1      -0.083   0.252  -0.269  0.00  0.00    -0.187 N 
HETATM    8  C   UNK N   1       0.468   1.417   0.038  0.00  0.00     0.325 C 
HETATM    9  O   UNK N   1       0.085   2.138   0.946  0.00  0.00    -0.251 OA
ENDROOT
BRANCH   3  10
HETATM   10  C   UNK N   1       3.035   2.471   1.128  0.00  0.00     0.236 C 
HETATM   11  O   UNK N   1       3.267   2.086   2.263  0.00  0.00    -0.272 OA
HETATM   12  N   UNK N   1       2.949   3.806   0.891  0.00  0.00    -0.355 N 
HETATM   13  H   UNK N   1       3.079   4.422   1.647  0.00  0.00     0.162 HD
BRANCH  12  14
HETATM   14  C   UNK N   1       2.678   4.370  -0.415  0.00  0.00     0.087 C 
HETATM   15  C   UNK N   1       2.189   5.814  -0.269  0.00  0.00     0.044 C 
HETATM   16  C   UNK N   1       3.335   6.821  -0.095  0.00  0.00     0.115 C 
HETATM   17  N   UNK N   1       4.580   6.154   0.280  0.00  0.00    -0.421 N 
HETATM   18  C   UNK N   1       5.020   5.302  -0.829  0.00  0.00     0.115 C 
HETATM   19  H   UNK N   1       5.066   6.265   1.170  0.00  0.00     0.153 HD
HETATM   20  C   UNK N   1       3.929   4.321  -1.297  0.00  0.00     0.044 C 
ENDBRANCH  12  14
ENDBRANCH   3  10
BRANCH   7  21
HETATM   21  O   UNK N   1      -1.325  -0.117   0.122  0.00  0.00    -0.132 OA
BRANCH  21  22
HETATM   22  S   UNK N   1      -1.363  -1.824   0.405  0.00  0.00     0.263 S 
HETATM   23  O   UNK N   1      -2.777  -2.303   0.767  0.00  0.00    -0.578 OA
HETATM   24  O   UNK N   1      -0.902  -2.693  -0.776  0.00  0.00    -0.578 OA
BRANCH  22  25
HETATM   25  O   UNK N   1      -2.332  -1.378  -0.943  0.00  0.00    -0.272 OA
HETATM   26  H   UNK N   1      -2.387  -0.778  -1.703  0.00  0.00     0.234 HD
ENDBRANCH  22  25
ENDBRANCH  21  22
ENDBRANCH   7  21
TORSDOF 5
