MODEL 1
REMARK VINA RESULT:      -6.9      0.000      0.000
REMARK  4 active torsions:
REMARK  status: ('A' for Active; 'I' for Inactive)
REMARK    1  A    between atoms: C_2  and  C_4 
REMARK    2  A    between atoms: C_9  and  C_10 
REMARK    3  A    between atoms: N_19  and  N_23 
REMARK    4  A    between atoms: N_23  and  S_24 
ROOT
HETATM    1  C   UNK N   1      36.290  13.782  13.873  0.00  0.00    -0.040 A 
HETATM    2  C   UNK N   1      36.084  15.042  13.265  0.00  0.00     0.039 A 
HETATM    3  C   UNK N   1      35.702  15.144  11.925  0.00  0.00     0.052 A 
HETATM    4  C   UNK N   1      35.545  13.984  11.164  0.00  0.00     0.062 A 
HETATM    5  C   UNK N   1      35.708  12.739  11.760  0.00  0.00     0.033 A 
HETATM    6  C   UNK N   1      36.065  12.597  13.101  0.00  0.00    -0.000 A 
HETATM    7  C   UNK N   1      35.266  14.093   9.801  0.00  0.00     0.283 A 
HETATM    8  O   UNK N   1      35.196  13.085   9.117  0.00  0.00    -0.265 OA
HETATM    9  N   UNK N   1      35.111  15.338   9.227  0.00  0.00    -0.158 N 
HETATM   10  C   UNK N   1      35.228  16.469  10.009  0.00  0.00     0.349 A 
HETATM   11  O   UNK N   1      35.105  17.576   9.514  0.00  0.00    -0.244 OA
HETATM   12  N   UNK N   1      35.529  16.358  11.346  0.00  0.00    -0.306 N 
HETATM   13  H   UNK N   1      35.618  17.173  11.891  0.00  0.00     0.171 HD
ENDROOT
BRANCH   6  14
HETATM   14  C   UNK N   1      36.231  11.198  13.621  0.00  0.00     0.062 A 
HETATM   15  C   UNK N   1      37.413  10.484  13.697  0.00  0.00     0.050 A 
HETATM   16  C   UNK N   1      37.058   9.257  14.238  0.00  0.00     0.109 A 
HETATM   17  N   UNK N   1      35.732   9.251  14.471  0.00  0.00    -0.310 N 
HETATM   18  N   UNK N   1      35.235  10.414  14.099  0.00  0.00    -0.296 N 
ATOM     19  HN  UNK N   1      35.202   8.475  14.868  1.00  0.00     0.186 HD
HETATM   20  C   UNK N   1      33.820  10.728  14.239  0.00  0.00     0.178 C 
ENDBRANCH   6  14
BRANCH   1  21
HETATM   21  C   UNK N   1      36.756  13.729  15.315  0.00  0.00     0.011 C 
HETATM   22  C   UNK N   1      35.634  13.302  16.242  0.00  0.00     0.015 C 
HETATM   23  C   UNK N   1      37.350  15.036  15.825  0.00  0.00     0.015 C 
ENDBRANCH   1  21
BRANCH   9  24
HETATM   24  N   UNK N   1      34.949  15.476   7.829  0.00  0.00    -0.213 N 
HETATM   25  H   UNK N   1      35.690  15.665   7.208  0.00  0.00     0.200 HD
BRANCH  24  26
HETATM   26  S   UNK N   1      33.259  15.273   7.319  0.00  0.00     0.240 S 
HETATM   27  O   UNK N   1      33.379  16.708   6.787  0.00  0.00    -0.205 OA
HETATM   28  O   UNK N   1      32.338  15.822   8.418  0.00  0.00    -0.205 OA
HETATM   29  C   UNK N   1      32.548  14.987   5.671  0.00  0.00     0.187 C 
ENDBRANCH  24  26
ENDBRANCH   9  24
TORSDOF 4
ENDMDL
MODEL 2
REMARK VINA RESULT:      -6.8     17.190     20.775
REMARK  4 active torsions:
REMARK  status: ('A' for Active; 'I' for Inactive)
REMARK    1  A    between atoms: C_2  and  C_4 
REMARK    2  A    between atoms: C_9  and  C_10 
REMARK    3  A    between atoms: N_19  and  N_23 
REMARK    4  A    between atoms: N_23  and  S_24 
ROOT
HETATM    1  C   UNK N   1      28.386  23.796  -5.037  0.00  0.00    -0.040 A 
HETATM    2  C   UNK N   1      29.348  23.658  -4.009  0.00  0.00     0.039 A 
HETATM    3  C   UNK N   1      30.303  22.639  -4.047  0.00  0.00     0.052 A 
HETATM    4  C   UNK N   1      30.294  21.725  -5.103  0.00  0.00     0.062 A 
HETATM    5  C   UNK N   1      29.378  21.874  -6.137  0.00  0.00     0.033 A 
HETATM    6  C   UNK N   1      28.425  22.893  -6.147  0.00  0.00    -0.000 A 
HETATM    7  C   UNK N   1      31.182  20.649  -5.084  0.00  0.00     0.283 A 
HETATM    8  O   UNK N   1      31.131  19.810  -5.968  0.00  0.00    -0.265 OA
HETATM    9  N   UNK N   1      32.081  20.516  -4.046  0.00  0.00    -0.158 N 
HETATM   10  C   UNK N   1      32.101  21.457  -3.036  0.00  0.00     0.349 A 
HETATM   11  O   UNK N   1      32.882  21.347  -2.107  0.00  0.00    -0.244 OA
HETATM   12  N   UNK N   1      31.207  22.501  -3.045  0.00  0.00    -0.306 N 
HETATM   13  H   UNK N   1      31.225  23.161  -2.314  0.00  0.00     0.171 HD
ENDROOT
BRANCH   6  14
HETATM   14  C   UNK N   1      27.477  22.933  -7.311  0.00  0.00     0.062 A 
HETATM   15  C   UNK N   1      26.324  22.186  -7.458  0.00  0.00     0.050 A 
HETATM   16  C   UNK N   1      25.799  22.570  -8.683  0.00  0.00     0.109 A 
HETATM   17  N   UNK N   1      26.603  23.501  -9.229  0.00  0.00    -0.310 N 
HETATM   18  N   UNK N   1      27.612  23.718  -8.408  0.00  0.00    -0.296 N 
ATOM     19  HN  UNK N   1      26.457  23.960 -10.128  1.00  0.00     0.186 HD
HETATM   20  C   UNK N   1      28.655  24.689  -8.707  0.00  0.00     0.178 C 
ENDBRANCH   6  14
BRANCH   1  21
HETATM   21  C   UNK N   1      27.339  24.887  -4.920  0.00  0.00     0.011 C 
HETATM   22  C   UNK N   1      27.881  26.096  -4.181  0.00  0.00     0.015 C 
HETATM   23  C   UNK N   1      26.044  24.438  -4.253  0.00  0.00     0.015 C 
ENDBRANCH   1  21
BRANCH   9  24
HETATM   24  N   UNK N   1      32.905  19.372  -3.943  0.00  0.00    -0.213 N 
HETATM   25  H   UNK N   1      32.669  18.573  -3.417  0.00  0.00     0.200 HD
BRANCH  24  26
HETATM   26  S   UNK N   1      34.414  19.537  -4.865  0.00  0.00     0.240 S 
HETATM   27  O   UNK N   1      34.862  18.272  -4.118  0.00  0.00    -0.205 OA
HETATM   28  O   UNK N   1      35.430  20.321  -4.021  0.00  0.00    -0.205 OA
HETATM   29  C   UNK N   1      35.032  18.606  -6.299  0.00  0.00     0.187 C 
ENDBRANCH  24  26
ENDBRANCH   9  24
TORSDOF 4
ENDMDL
MODEL 3
REMARK VINA RESULT:      -6.8      1.370      1.756
REMARK  4 active torsions:
REMARK  status: ('A' for Active; 'I' for Inactive)
REMARK    1  A    between atoms: C_2  and  C_4 
REMARK    2  A    between atoms: C_9  and  C_10 
REMARK    3  A    between atoms: N_19  and  N_23 
REMARK    4  A    between atoms: N_23  and  S_24 
ROOT
HETATM    1  C   UNK N   1      35.691  13.694  12.960  0.00  0.00    -0.040 A 
HETATM    2  C   UNK N   1      35.657  15.051  12.563  0.00  0.00     0.039 A 
HETATM    3  C   UNK N   1      35.318  15.413  11.258  0.00  0.00     0.052 A 
HETATM    4  C   UNK N   1      35.031  14.419  10.320  0.00  0.00     0.062 A 
HETATM    5  C   UNK N   1      35.023  13.084  10.708  0.00  0.00     0.033 A 
HETATM    6  C   UNK N   1      35.333  12.686  12.009  0.00  0.00    -0.000 A 
HETATM    7  C   UNK N   1      34.794  14.778   8.992  0.00  0.00     0.283 A 
HETATM    8  O   UNK N   1      34.612  13.909   8.156  0.00  0.00    -0.265 OA
HETATM    9  N   UNK N   1      34.810  16.108   8.625  0.00  0.00    -0.158 N 
HETATM   10  C   UNK N   1      35.053  17.076   9.580  0.00  0.00     0.349 A 
HETATM   11  O   UNK N   1      35.080  18.254   9.268  0.00  0.00    -0.244 OA
HETATM   12  N   UNK N   1      35.311  16.716  10.881  0.00  0.00    -0.306 N 
HETATM   13  H   UNK N   1      35.492  17.416  11.550  0.00  0.00     0.171 HD
ENDROOT
BRANCH   6  14
HETATM   14  C   UNK N   1      35.311  11.213  12.297  0.00  0.00     0.062 A 
HETATM   15  C   UNK N   1      34.206  10.461  12.652  0.00  0.00     0.050 A 
HETATM   16  C   UNK N   1      34.685   9.169  12.810  0.00  0.00     0.109 A 
HETATM   17  N   UNK N   1      36.007   9.160  12.557  0.00  0.00    -0.310 N 
HETATM   18  N   UNK N   1      36.384  10.386  12.252  0.00  0.00    -0.296 N 
ATOM     19  HN  UNK N   1      36.615   8.342  12.597  1.00  0.00     0.186 HD
HETATM   20  C   UNK N   1      37.763  10.706  11.909  0.00  0.00     0.178 C 
ENDBRANCH   6  14
BRANCH   1  21
HETATM   21  C   UNK N   1      36.117  13.353  14.375  0.00  0.00     0.011 C 
HETATM   22  C   UNK N   1      34.919  13.057  15.257  0.00  0.00     0.015 C 
HETATM   23  C   UNK N   1      36.971  14.424  15.043  0.00  0.00     0.015 C 
ENDBRANCH   1  21
BRANCH   9  24
HETATM   24  N   UNK N   1      34.694  16.487   7.268  0.00  0.00    -0.213 N 
HETATM   25  H   UNK N   1      35.465  16.627   6.672  0.00  0.00     0.200 HD
BRANCH  24  26
HETATM   26  S   UNK N   1      33.003  16.685   6.761  0.00  0.00     0.240 S 
HETATM   27  O   UNK N   1      33.520  17.875   5.941  0.00  0.00    -0.205 OA
HETATM   28  O   UNK N   1      32.321  17.700   7.690  0.00  0.00    -0.205 OA
HETATM   29  C   UNK N   1      32.184  16.278   5.190  0.00  0.00     0.187 C 
ENDBRANCH  24  26
ENDBRANCH   9  24
TORSDOF 4
ENDMDL
MODEL 4
REMARK VINA RESULT:      -6.8      7.764     10.126
REMARK  4 active torsions:
REMARK  status: ('A' for Active; 'I' for Inactive)
REMARK    1  A    between atoms: C_2  and  C_4 
REMARK    2  A    between atoms: C_9  and  C_10 
REMARK    3  A    between atoms: N_19  and  N_23 
REMARK    4  A    between atoms: N_23  and  S_24 
ROOT
HETATM    1  C   UNK N   1      29.587  17.965   7.340  0.00  0.00    -0.040 A 
HETATM    2  C   UNK N   1      30.917  17.502   7.464  0.00  0.00     0.039 A 
HETATM    3  C   UNK N   1      31.661  17.132   6.341  0.00  0.00     0.052 A 
HETATM    4  C   UNK N   1      31.074  17.196   5.075  0.00  0.00     0.062 A 
HETATM    5  C   UNK N   1      29.780  17.685   4.937  0.00  0.00     0.033 A 
HETATM    6  C   UNK N   1      29.016  18.087   6.033  0.00  0.00    -0.000 A 
HETATM    7  C   UNK N   1      31.783  16.728   3.968  0.00  0.00     0.283 A 
HETATM    8  O   UNK N   1      31.249  16.717   2.871  0.00  0.00    -0.265 OA
HETATM    9  N   UNK N   1      33.064  16.242   4.125  0.00  0.00    -0.158 N 
HETATM   10  C   UNK N   1      33.640  16.230   5.380  0.00  0.00     0.349 A 
HETATM   11  O   UNK N   1      34.767  15.794   5.536  0.00  0.00    -0.244 OA
HETATM   12  N   UNK N   1      32.929  16.668   6.472  0.00  0.00    -0.306 N 
HETATM   13  H   UNK N   1      33.347  16.645   7.363  0.00  0.00     0.171 HD
ENDROOT
BRANCH   6  14
HETATM   14  C   UNK N   1      27.624  18.576   5.754  0.00  0.00     0.062 A 
HETATM   15  C   UNK N   1      27.236  19.891   5.576  0.00  0.00     0.050 A 
HETATM   16  C   UNK N   1      25.868  19.835   5.348  0.00  0.00     0.109 A 
HETATM   17  N   UNK N   1      25.472  18.549   5.388  0.00  0.00    -0.310 N 
HETATM   18  N   UNK N   1      26.524  17.793   5.634  0.00  0.00    -0.296 N 
ATOM     19  HN  UNK N   1      24.518  18.216   5.252  1.00  0.00     0.186 HD
HETATM   20  C   UNK N   1      26.428  16.343   5.724  0.00  0.00     0.178 C 
ENDBRANCH   6  14
BRANCH   1  21
HETATM   21  C   UNK N   1      28.807  18.303   8.596  0.00  0.00     0.011 C 
HETATM   22  C   UNK N   1      29.730  18.735   9.720  0.00  0.00     0.015 C 
HETATM   23  C   UNK N   1      27.913  17.174   9.097  0.00  0.00     0.015 C 
ENDBRANCH   1  21
BRANCH   9  24
HETATM   24  N   UNK N   1      33.754  15.652   3.041  0.00  0.00    -0.213 N 
HETATM   25  H   UNK N   1      34.289  16.161   2.391  0.00  0.00     0.200 HD
BRANCH  24  26
HETATM   26  S   UNK N   1      33.544  13.889   2.984  0.00  0.00     0.240 S 
HETATM   27  O   UNK N   1      34.087  13.997   1.551  0.00  0.00    -0.205 OA
HETATM   28  O   UNK N   1      32.170  13.571   2.374  0.00  0.00    -0.205 OA
HETATM   29  C   UNK N   1      34.768  12.548   3.079  0.00  0.00     0.187 C 
ENDBRANCH  24  26
ENDBRANCH   9  24
TORSDOF 4
ENDMDL
MODEL 5
REMARK VINA RESULT:      -6.8     11.090     14.207
REMARK  4 active torsions:
REMARK  status: ('A' for Active; 'I' for Inactive)
REMARK    1  A    between atoms: C_2  and  C_4 
REMARK    2  A    between atoms: C_9  and  C_10 
REMARK    3  A    between atoms: N_19  and  N_23 
REMARK    4  A    between atoms: N_23  and  S_24 
ROOT
HETATM    1  C   UNK N   1      25.242  18.433   4.350  0.00  0.00    -0.040 A 
HETATM    2  C   UNK N   1      23.900  18.577   4.773  0.00  0.00     0.039 A 
HETATM    3  C   UNK N   1      23.234  17.539   5.428  0.00  0.00     0.052 A 
HETATM    4  C   UNK N   1      23.894  16.329   5.649  0.00  0.00     0.062 A 
HETATM    5  C   UNK N   1      25.225  16.188   5.272  0.00  0.00     0.033 A 
HETATM    6  C   UNK N   1      25.930  17.211   4.637  0.00  0.00    -0.000 A 
HETATM    7  C   UNK N   1      23.194  15.260   6.210  0.00  0.00     0.283 A 
HETATM    8  O   UNK N   1      23.745  14.180   6.341  0.00  0.00    -0.265 OA
HETATM    9  N   UNK N   1      21.873  15.418   6.575  0.00  0.00    -0.158 N 
HETATM   10  C   UNK N   1      21.254  16.638   6.387  0.00  0.00     0.349 A 
HETATM   11  O   UNK N   1      20.084  16.789   6.694  0.00  0.00    -0.244 OA
HETATM   12  N   UNK N   1      21.940  17.680   5.810  0.00  0.00    -0.306 N 
HETATM   13  H   UNK N   1      21.485  18.542   5.673  0.00  0.00     0.171 HD
ENDROOT
BRANCH   6  14
HETATM   14  C   UNK N   1      27.356  16.928   4.261  0.00  0.00     0.062 A 
HETATM   15  C   UNK N   1      27.796  16.337   3.092  0.00  0.00     0.050 A 
HETATM   16  C   UNK N   1      29.177  16.291   3.208  0.00  0.00     0.109 A 
HETATM   17  N   UNK N   1      29.533  16.831   4.388  0.00  0.00    -0.310 N 
HETATM   18  N   UNK N   1      28.441  17.211   5.022  0.00  0.00    -0.296 N 
ATOM     19  HN  UNK N   1      30.488  16.929   4.734  1.00  0.00     0.186 HD
HETATM   20  C   UNK N   1      28.491  17.852   6.329  0.00  0.00     0.178 C 
ENDBRANCH   6  14
BRANCH   1  21
HETATM   21  C   UNK N   1      25.901  19.572   3.595  0.00  0.00     0.011 C 
HETATM   22  C   UNK N   1      26.648  20.498   4.536  0.00  0.00     0.015 C 
HETATM   23  C   UNK N   1      24.939  20.396   2.749  0.00  0.00     0.015 C 
ENDBRANCH   1  21
BRANCH   9  24
HETATM   24  N   UNK N   1      21.111  14.318   7.031  0.00  0.00    -0.213 N 
HETATM   25  H   UNK N   1      20.613  13.712   6.435  0.00  0.00     0.200 HD
BRANCH  24  26
HETATM   26  S   UNK N   1      21.149  14.152   8.799  0.00  0.00     0.240 S 
HETATM   27  O   UNK N   1      20.844  12.670   8.541  0.00  0.00    -0.205 OA
HETATM   28  O   UNK N   1      19.720  14.290   9.343  0.00  0.00    -0.205 OA
HETATM   29  C   UNK N   1      22.417  13.443   9.893  0.00  0.00     0.187 C 
ENDBRANCH  24  26
ENDBRANCH   9  24
TORSDOF 4
ENDMDL
MODEL 6
REMARK VINA RESULT:      -6.5      3.138      8.215
REMARK  4 active torsions:
REMARK  status: ('A' for Active; 'I' for Inactive)
REMARK    1  A    between atoms: C_2  and  C_4 
REMARK    2  A    between atoms: C_9  and  C_10 
REMARK    3  A    between atoms: N_19  and  N_23 
REMARK    4  A    between atoms: N_23  and  S_24 
ROOT
HETATM    1  C   UNK N   1      31.831  16.251   6.506  0.00  0.00    -0.040 A 
HETATM    2  C   UNK N   1      32.324  16.975   7.616  0.00  0.00     0.039 A 
HETATM    3  C   UNK N   1      33.453  16.542   8.316  0.00  0.00     0.052 A 
HETATM    4  C   UNK N   1      34.092  15.362   7.930  0.00  0.00     0.062 A 
HETATM    5  C   UNK N   1      33.639  14.663   6.818  0.00  0.00     0.033 A 
HETATM    6  C   UNK N   1      32.530  15.077   6.079  0.00  0.00    -0.000 A 
HETATM    7  C   UNK N   1      35.155  14.879   8.694  0.00  0.00     0.283 A 
HETATM    8  O   UNK N   1      35.672  13.813   8.402  0.00  0.00    -0.265 OA
HETATM    9  N   UNK N   1      35.588  15.585   9.798  0.00  0.00    -0.158 N 
HETATM   10  C   UNK N   1      34.968  16.772  10.133  0.00  0.00     0.349 A 
HETATM   11  O   UNK N   1      35.333  17.401  11.112  0.00  0.00    -0.244 OA
HETATM   12  N   UNK N   1      33.905  17.231   9.394  0.00  0.00    -0.306 N 
HETATM   13  H   UNK N   1      33.466  18.075   9.649  0.00  0.00     0.171 HD
ENDROOT
BRANCH   6  14
HETATM   14  C   UNK N   1      32.128  14.223   4.912  0.00  0.00     0.062 A 
HETATM   15  C   UNK N   1      31.254  13.153   4.938  0.00  0.00     0.050 A 
HETATM   16  C   UNK N   1      31.207  12.693   3.630  0.00  0.00     0.109 A 
HETATM   17  N   UNK N   1      32.013  13.458   2.870  0.00  0.00    -0.310 N 
HETATM   18  N   UNK N   1      32.568  14.375   3.638  0.00  0.00    -0.296 N 
ATOM     19  HN  UNK N   1      32.168  13.346   1.868  1.00  0.00     0.186 HD
HETATM   20  C   UNK N   1      33.485  15.374   3.107  0.00  0.00     0.178 C 
ENDBRANCH   6  14
BRANCH   1  21
HETATM   21  C   UNK N   1      30.571  16.736   5.815  0.00  0.00     0.011 C 
HETATM   22  C   UNK N   1      30.898  17.609   4.618  0.00  0.00     0.015 C 
HETATM   23  C   UNK N   1      29.610  17.487   6.728  0.00  0.00     0.015 C 
ENDBRANCH   1  21
BRANCH   9  24
HETATM   24  N   UNK N   1      36.580  15.054  10.654  0.00  0.00    -0.213 N 
HETATM   25  H   UNK N   1      37.541  15.051  10.442  0.00  0.00     0.200 HD
BRANCH  24  26
HETATM   26  S   UNK N   1      35.896  14.392  12.154  0.00  0.00     0.240 S 
HETATM   27  O   UNK N   1      36.204  13.019  11.541  0.00  0.00    -0.205 OA
HETATM   28  O   UNK N   1      34.407  14.089  11.932  0.00  0.00    -0.205 OA
HETATM   29  C   UNK N   1      36.713  13.651  13.600  0.00  0.00     0.187 C 
ENDBRANCH  24  26
ENDBRANCH   9  24
TORSDOF 4
ENDMDL
MODEL 7
REMARK VINA RESULT:      -6.4      3.710      8.945
REMARK  4 active torsions:
REMARK  status: ('A' for Active; 'I' for Inactive)
REMARK    1  A    between atoms: C_2  and  C_4 
REMARK    2  A    between atoms: C_9  and  C_10 
REMARK    3  A    between atoms: N_19  and  N_23 
REMARK    4  A    between atoms: N_23  and  S_24 
ROOT
HETATM    1  C   UNK N   1      29.974  17.042   6.961  0.00  0.00    -0.040 A 
HETATM    2  C   UNK N   1      30.891  17.527   7.923  0.00  0.00     0.039 A 
HETATM    3  C   UNK N   1      32.140  16.926   8.098  0.00  0.00     0.052 A 
HETATM    4  C   UNK N   1      32.481  15.811   7.329  0.00  0.00     0.062 A 
HETATM    5  C   UNK N   1      31.604  15.349   6.355  0.00  0.00     0.033 A 
HETATM    6  C   UNK N   1      30.358  15.938   6.135  0.00  0.00    -0.000 A 
HETATM    7  C   UNK N   1      33.685  15.151   7.579  0.00  0.00     0.283 A 
HETATM    8  O   UNK N   1      33.955  14.136   6.958  0.00  0.00    -0.265 OA
HETATM    9  N   UNK N   1      34.541  15.623   8.552  0.00  0.00    -0.158 N 
HETATM   10  C   UNK N   1      34.201  16.753   9.269  0.00  0.00     0.349 A 
HETATM   11  O   UNK N   1      34.942  17.175  10.139  0.00  0.00    -0.244 OA
HETATM   12  N   UNK N   1      33.003  17.385   9.038  0.00  0.00    -0.306 N 
HETATM   13  H   UNK N   1      32.768  18.185   9.563  0.00  0.00     0.171 HD
ENDROOT
BRANCH   6  14
HETATM   14  C   UNK N   1      29.494  15.332   5.068  0.00  0.00     0.062 A 
HETATM   15  C   UNK N   1      28.456  14.438   5.259  0.00  0.00     0.050 A 
HETATM   16  C   UNK N   1      27.970  14.172   3.988  0.00  0.00     0.109 A 
HETATM   17  N   UNK N   1      28.686  14.877   3.091  0.00  0.00    -0.310 N 
HETATM   18  N   UNK N   1      29.602  15.571   3.738  0.00  0.00    -0.296 N 
ATOM     19  HN  UNK N   1      28.543  14.873   2.081  1.00  0.00     0.186 HD
HETATM   20  C   UNK N   1      30.531  16.454   3.047  0.00  0.00     0.178 C 
ENDBRANCH   6  14
BRANCH   1  21
HETATM   21  C   UNK N   1      28.612  17.698   6.849  0.00  0.00     0.011 C 
HETATM   22  C   UNK N   1      28.517  18.565   5.608  0.00  0.00     0.015 C 
HETATM   23  C   UNK N   1      28.219  18.529   8.065  0.00  0.00     0.015 C 
ENDBRANCH   1  21
BRANCH   9  24
HETATM   24  N   UNK N   1      35.705  14.902   8.905  0.00  0.00    -0.213 N 
HETATM   25  H   UNK N   1      36.583  15.042   8.483  0.00  0.00     0.200 HD
BRANCH  24  26
HETATM   26  S   UNK N   1      35.403  13.715  10.192  0.00  0.00     0.240 S 
HETATM   27  O   UNK N   1      36.805  14.090  10.694  0.00  0.00    -0.205 OA
HETATM   28  O   UNK N   1      35.985  12.360   9.765  0.00  0.00    -0.205 OA
HETATM   29  C   UNK N   1      34.985  13.953  11.945  0.00  0.00     0.187 C 
ENDBRANCH  24  26
ENDBRANCH   9  24
TORSDOF 4
ENDMDL
MODEL 8
REMARK VINA RESULT:      -6.3      9.160     12.807
REMARK  4 active torsions:
REMARK  status: ('A' for Active; 'I' for Inactive)
REMARK    1  A    between atoms: C_2  and  C_4 
REMARK    2  A    between atoms: C_9  and  C_10 
REMARK    3  A    between atoms: N_19  and  N_23 
REMARK    4  A    between atoms: N_23  and  S_24 
ROOT
HETATM    1  C   UNK N   1      26.718  18.108   5.320  0.00  0.00    -0.040 A 
HETATM    2  C   UNK N   1      25.370  17.991   4.910  0.00  0.00     0.039 A 
HETATM    3  C   UNK N   1      24.595  16.889   5.281  0.00  0.00     0.052 A 
HETATM    4  C   UNK N   1      25.167  15.873   6.049  0.00  0.00     0.062 A 
HETATM    5  C   UNK N   1      26.480  15.995   6.489  0.00  0.00     0.033 A 
HETATM    6  C   UNK N   1      27.276  17.092   6.159  0.00  0.00    -0.000 A 
HETATM    7  C   UNK N   1      24.422  14.726   6.330  0.00  0.00     0.283 A 
HETATM    8  O   UNK N   1      24.940  13.806   6.940  0.00  0.00    -0.265 OA
HETATM    9  N   UNK N   1      23.122  14.622   5.881  0.00  0.00    -0.158 N 
HETATM   10  C   UNK N   1      22.564  15.659   5.161  0.00  0.00     0.349 A 
HETATM   11  O   UNK N   1      21.420  15.577   4.748  0.00  0.00    -0.244 OA
HETATM   12  N   UNK N   1      23.309  16.775   4.864  0.00  0.00    -0.306 N 
HETATM   13  H   UNK N   1      22.902  17.505   4.342  0.00  0.00     0.171 HD
ENDROOT
BRANCH   6  14
HETATM   14  C   UNK N   1      28.685  17.095   6.679  0.00  0.00     0.062 A 
HETATM   15  C   UNK N   1      29.804  16.614   6.026  0.00  0.00     0.050 A 
HETATM   16  C   UNK N   1      30.856  16.836   6.901  0.00  0.00     0.109 A 
HETATM   17  N   UNK N   1      30.380  17.423   8.015  0.00  0.00    -0.310 N 
HETATM   18  N   UNK N   1      29.077  17.576   7.884  0.00  0.00    -0.296 N 
ATOM     19  HN  UNK N   1      30.935  17.701   8.825  1.00  0.00     0.186 HD
HETATM   20  C   UNK N   1      28.266  18.201   8.920  0.00  0.00     0.178 C 
ENDBRANCH   6  14
BRANCH   1  21
HETATM   21  C   UNK N   1      27.529  19.298   4.845  0.00  0.00     0.011 C 
HETATM   22  C   UNK N   1      27.602  20.377   5.909  0.00  0.00     0.015 C 
HETATM   23  C   UNK N   1      27.026  19.916   3.546  0.00  0.00     0.015 C 
ENDBRANCH   1  21
BRANCH   9  24
HETATM   24  N   UNK N   1      22.392  13.423   6.048  0.00  0.00    -0.213 N 
HETATM   25  H   UNK N   1      22.380  12.693   5.387  0.00  0.00     0.200 HD
BRANCH  24  26
HETATM   26  S   UNK N   1      21.496  13.383   7.582  0.00  0.00     0.240 S 
HETATM   27  O   UNK N   1      20.952  12.037   7.084  0.00  0.00    -0.205 OA
HETATM   28  O   UNK N   1      20.093  13.965   7.354  0.00  0.00    -0.205 OA
HETATM   29  C   UNK N   1      21.787  12.421   9.097  0.00  0.00     0.187 C 
ENDBRANCH  24  26
ENDBRANCH   9  24
TORSDOF 4
ENDMDL
MODEL 9
REMARK VINA RESULT:      -6.1      7.679     10.696
REMARK  4 active torsions:
REMARK  status: ('A' for Active; 'I' for Inactive)
REMARK    1  A    between atoms: C_2  and  C_4 
REMARK    2  A    between atoms: C_9  and  C_10 
REMARK    3  A    between atoms: N_19  and  N_23 
REMARK    4  A    between atoms: N_23  and  S_24 
ROOT
HETATM    1  C   UNK N   1      35.164  11.810  17.551  0.00  0.00    -0.040 A 
HETATM    2  C   UNK N   1      35.309  11.805  18.958  0.00  0.00     0.039 A 
HETATM    3  C   UNK N   1      35.123  10.635  19.699  0.00  0.00     0.052 A 
HETATM    4  C   UNK N   1      34.764   9.455  19.043  0.00  0.00     0.062 A 
HETATM    5  C   UNK N   1      34.656   9.439  17.658  0.00  0.00     0.033 A 
HETATM    6  C   UNK N   1      34.858  10.582  16.883  0.00  0.00    -0.000 A 
HETATM    7  C   UNK N   1      34.478   8.315  19.795  0.00  0.00     0.283 A 
HETATM    8  O   UNK N   1      34.097   7.302  19.233  0.00  0.00    -0.265 OA
HETATM    9  N   UNK N   1      34.587   8.351  21.170  0.00  0.00    -0.158 N 
HETATM   10  C   UNK N   1      34.987   9.517  21.792  0.00  0.00     0.349 A 
HETATM   11  O   UNK N   1      35.077   9.566  23.006  0.00  0.00    -0.244 OA
HETATM   12  N   UNK N   1      35.242  10.645  21.050  0.00  0.00    -0.306 N 
HETATM   13  H   UNK N   1      35.518  11.473  21.506  0.00  0.00     0.171 HD
ENDROOT
BRANCH   6  14
HETATM   14  C   UNK N   1      34.690  10.440  15.398  0.00  0.00     0.062 A 
HETATM   15  C   UNK N   1      33.574  10.785  14.659  0.00  0.00     0.050 A 
HETATM   16  C   UNK N   1      33.897  10.469  13.348  0.00  0.00     0.109 A 
HETATM   17  N   UNK N   1      35.145   9.964  13.316  0.00  0.00    -0.310 N 
HETATM   18  N   UNK N   1      35.621   9.944  14.545  0.00  0.00    -0.296 N 
ATOM     19  HN  UNK N   1      35.638   9.650  12.480  1.00  0.00     0.186 HD
HETATM   20  C   UNK N   1      36.963   9.466  14.845  0.00  0.00     0.178 C 
ENDBRANCH   6  14
BRANCH   1  21
HETATM   21  C   UNK N   1      35.324  13.119  16.802  0.00  0.00     0.011 C 
HETATM   22  C   UNK N   1      36.509  13.072  15.855  0.00  0.00     0.015 C 
HETATM   23  C   UNK N   1      35.459  14.340  17.703  0.00  0.00     0.015 C 
ENDBRANCH   1  21
BRANCH   9  24
HETATM   24  N   UNK N   1      34.187   7.247  21.958  0.00  0.00    -0.213 N 
HETATM   25  H   UNK N   1      34.774   6.488  22.175  0.00  0.00     0.200 HD
BRANCH  24  26
HETATM   26  S   UNK N   1      32.503   7.384  22.509  0.00  0.00     0.240 S 
HETATM   27  O   UNK N   1      32.780   6.081  23.273  0.00  0.00    -0.205 OA
HETATM   28  O   UNK N   1      31.604   6.569  21.568  0.00  0.00    -0.205 OA
HETATM   29  C   UNK N   1      31.822   7.889  24.117  0.00  0.00     0.187 C 
ENDBRANCH  24  26
ENDBRANCH   9  24
TORSDOF 4
ENDMDL
