REMARK  4 active torsions:
REMARK  status: ('A' for Active; 'I' for Inactive)
REMARK    1  A    between atoms: C_7  and  N_8 
REMARK    2  A    between atoms: C_17  and  C_18 
REMARK    3  A    between atoms: C_17  and  O_33 
REMARK       I    between atoms: C_26  and  N_28 
REMARK       I    between atoms: N_28  and  C_29 
REMARK    4  A    between atoms: C_29  and  O_31 
ROOT
HETATM    1  N   UNK N   1       5.416   3.283   0.034  0.00  0.00    -0.272 N 
HETATM    2  C   UNK N   1       6.622   2.953   0.599  0.00  0.00     0.262 A 
HETATM    3  O   UNK N   1       7.356   3.727   1.194  0.00  0.00    -0.267 OA
HETATM    4  C   UNK N   1       6.981   1.610   0.300  0.00  0.00     0.044 A 
HETATM    5  C   UNK N   1       8.149   0.910   0.604  0.00  0.00     0.018 A 
HETATM    6  C   UNK N   1       8.279  -0.399   0.116  0.00  0.00     0.001 A 
HETATM    7  C   UNK N   1       7.257  -0.964  -0.670  0.00  0.00     0.001 A 
HETATM    8  C   UNK N   1       6.100  -0.223  -0.966  0.00  0.00     0.013 A 
HETATM    9  C   UNK N   1       5.983   1.077  -0.456  0.00  0.00     0.018 A 
HETATM   10  C   UNK N   1       4.842   2.079  -0.635  0.00  0.00     0.199 A 
ENDROOT
BRANCH  10  11
HETATM   11  C   UNK N   1       3.530   1.483  -0.051  0.00  0.00     0.004 A 
HETATM   12  C   UNK N   1       3.426   0.072   0.162  0.00  0.00     0.015 A 
HETATM   13  C   UNK N   1       2.193  -0.556   0.421  0.00  0.00     0.033 A 
HETATM   14  C   UNK N   1       1.068   0.252   0.459  0.00  0.00     0.076 A 
HETATM   15  C   UNK N   1       1.147   1.599   0.316  0.00  0.00     0.077 A 
HETATM   16  N   UNK N   1      -0.217  -0.121   0.568  0.00  0.00    -0.189 N 
HETATM   17  C   UNK N   1       2.351   2.250   0.061  0.00  0.00     0.045 A 
HETATM   18  N   UNK N   1      -0.084   2.131   0.344  0.00  0.00    -0.189 N 
HETATM   19  C   UNK N   1      -0.897   1.055   0.490  0.00  0.00     0.687 A 
ATOM     20  HN  UNK N   1      -0.347   3.114   0.273  1.00  0.00     0.184 HD
HETATM   21  N   UNK N   1      -2.313   1.162   0.432  0.00  0.00    -0.135 N 
HETATM   22  C   UNK N   1      -3.163   0.119   0.240  0.00  0.00     0.378 C 
HETATM   23  H   UNK N   1      -2.708   2.058   0.539  0.00  0.00     0.189 HD
HETATM   24  O   UNK N   1      -2.733  -1.019   0.094  0.00  0.00    -0.238 OA
HETATM   25  H   UNK N   1      -0.582  -1.029   0.678  0.00  0.00     0.184 HD
BRANCH  22  26
HETATM   26  O   UNK N   1      -4.493   0.363   0.162  0.00  0.00    -0.308 OA
HETATM   27  C   UNK N   1      -5.413  -0.624  -0.106  0.00  0.00     0.215 C 
ENDBRANCH  22  26
ENDBRANCH  10  11
BRANCH  10  28
HETATM   28  O   UNK N   1       4.699   2.313  -2.003  0.00  0.00    -0.362 OA
HETATM   29  H   UNK N   1       4.790   2.480  -2.954  0.00  0.00     0.213 HD
ENDBRANCH  10  28
BRANCH   1  30
HETATM   30  C   UNK N   1       4.966   4.682  -0.055  0.00  0.00     0.049 A 
HETATM   31  C   UNK N   1       5.772   5.679   0.546  0.00  0.00     0.054 A 
HETATM   32  C   UNK N   1       5.502   7.040   0.436  0.00  0.00     0.036 A 
HETATM   33  C   UNK N   1       4.388   7.467  -0.267  0.00  0.00     0.024 A 
HETATM   34 Cl   UNK N   1       6.608   8.212   1.122  0.00  0.00    -0.084 Cl
HETATM   35  C   UNK N   1       3.565   6.532  -0.880  0.00  0.00     0.011 A 
HETATM   36  C   UNK N   1       3.837   5.158  -0.812  0.00  0.00    -0.035 A 
HETATM   37  C   UNK N   1       2.934   4.318  -1.626  0.00  0.00     0.050 C 
ENDBRANCH   1  30
TORSDOF 4
