MODEL 1
REMARK VINA RESULT:      -5.9      0.000      0.000
REMARK  21 active torsions:
REMARK  status: ('A' for Active; 'I' for Inactive)
REMARK    1  A    between atoms: C_3  and  C_2 
REMARK    2  A    between atoms: C_7  and  S_86 
REMARK    3  A    between atoms: C_11  and  C_80 
REMARK    4  A    between atoms: C_15  and  C_77 
REMARK    5  A    between atoms: C_19  and  C_72 
REMARK    6  A    between atoms: C_31  and  C_65 
REMARK    7  A    between atoms: C_35  and  C_60 
REMARK    8  A    between atoms: C_39  and  C_56 
REMARK    9  A    between atoms: C_43  and  C_47 
REMARK   10  A    between atoms: C_47  and  C_48 
REMARK   11  A    between atoms: C_47  and  O_54 
REMARK   12  A    between atoms: C_48  and  C_50 
REMARK   13  A    between atoms: C_50  and  C_51 
REMARK   14  A    between atoms: C_60  and  C_61 
REMARK   15  A    between atoms: C_65  and  C_66 
REMARK   16  A    between atoms: C_72  and  C_73 
REMARK   17  A    between atoms: C_80  and  C_81 
REMARK   18  A    between atoms: C_81  and  O_84 
REMARK   19  A    between atoms: S_86  and  C_87 
REMARK   20  A    between atoms: C_87  and  C_88 
REMARK   21  A    between atoms: C_88  and  N_89 
ROOT
HETATM    1  C   UNK N   1      33.177  13.503   4.110  0.00  0.00     0.176 C 
HETATM    2  C   UNK N   1      32.110  14.521   3.908  0.00  0.00     0.243 C 
HETATM    3  O   UNK N   1      32.077  15.178   2.873  0.00  0.00    -0.271 OA
HETATM    4  N   UNK N   1      31.320  14.861   4.946  0.00  0.00    -0.333 N 
HETATM    5  C   UNK N   1      30.978  16.240   5.094  0.00  0.00     0.241 C 
HETATM    6  C   UNK N   1      29.802  16.902   4.460  0.00  0.00     0.253 C 
HETATM    7  O   UNK N   1      29.854  18.099   4.349  0.00  0.00    -0.270 OA
HETATM    8  N   UNK N   1      28.628  16.259   4.228  0.00  0.00    -0.340 N 
HETATM    9  C   UNK N   1      27.427  17.106   4.212  0.00  0.00     0.181 C 
HETATM   10  C   UNK N   1      26.160  16.332   4.292  0.00  0.00     0.241 C 
HETATM   11  O   UNK N   1      26.082  15.391   5.067  0.00  0.00    -0.271 OA
HETATM   12  N   UNK N   1      25.052  16.947   3.825  0.00  0.00    -0.346 N 
HETATM   13  C   UNK N   1      23.694  16.750   4.286  0.00  0.00     0.180 C 
HETATM   14  C   UNK N   1      23.506  15.710   5.392  0.00  0.00     0.243 C 
HETATM   15  O   UNK N   1      23.325  16.080   6.546  0.00  0.00    -0.271 OA
HETATM   16  N   UNK N   1      23.418  14.383   5.073  0.00  0.00    -0.341 N 
HETATM   17  C   UNK N   1      22.923  13.394   6.051  0.00  0.00     0.179 C 
HETATM   18  C   UNK N   1      22.618  12.083   5.373  0.00  0.00     0.241 C 
HETATM   19  O   UNK N   1      23.220  11.066   5.685  0.00  0.00    -0.271 OA
HETATM   20  N   UNK N   1      21.694  12.087   4.376  0.00  0.00    -0.346 N 
HETATM   21  C   UNK N   1      21.361  11.019   3.468  0.00  0.00     0.172 C 
HETATM   22  C   UNK N   1      21.139   9.732   4.164  0.00  0.00     0.240 C 
HETATM   23  O   UNK N   1      20.374   9.659   5.116  0.00  0.00    -0.271 OA
HETATM   24  N   UNK N   1      21.847   8.662   3.757  0.00  0.00    -0.346 N 
HETATM   25  C   UNK N   1      21.819   7.437   4.493  0.00  0.00     0.172 C 
HETATM   26  C   UNK N   1      23.013   7.385   5.406  0.00  0.00     0.242 C 
HETATM   27  O   UNK N   1      22.774   7.247   6.597  0.00  0.00    -0.271 OA
HETATM   28  N   UNK N   1      24.308   7.654   5.007  0.00  0.00    -0.341 N 
HETATM   29  C   UNK N   1      24.748   7.826   3.600  0.00  0.00     0.179 C 
HETATM   30  C   UNK N   1      26.223   7.462   3.419  0.00  0.00     0.243 C 
HETATM   31  O   UNK N   1      26.781   6.870   4.329  0.00  0.00    -0.271 OA
HETATM   32  N   UNK N   1      26.845   7.580   2.197  0.00  0.00    -0.341 N 
HETATM   33  C   UNK N   1      27.989   6.742   1.853  0.00  0.00     0.179 C 
HETATM   34  C   UNK N   1      29.305   7.435   1.812  0.00  0.00     0.243 C 
HETATM   35  O   UNK N   1      29.892   7.453   0.741  0.00  0.00    -0.271 OA
HETATM   36  N   UNK N   1      29.894   7.949   2.934  0.00  0.00    -0.341 N 
HETATM   37  C   UNK N   1      31.281   8.304   2.930  0.00  0.00     0.182 C 
HETATM   38  C   UNK N   1      31.778   9.685   2.843  0.00  0.00     0.243 C 
HETATM   39  O   UNK N   1      32.618   9.986   3.675  0.00  0.00    -0.271 OA
HETATM   40  N   UNK N   1      31.619  10.428   1.691  0.00  0.00    -0.339 N 
HETATM   41  C   UNK N   1      32.780  11.122   1.157  0.00  0.00     0.207 C 
HETATM   42  C   UNK N   1      33.063  12.390   1.889  0.00  0.00     0.243 C 
HETATM   43  O   UNK N   1      33.191  13.429   1.263  0.00  0.00    -0.271 OA
HETATM   44  N   UNK N   1      33.075  12.376   3.237  0.00  0.00    -0.346 N 
HETATM   45  C   UNK N   1      30.540  10.172   0.775  0.00  0.00     0.153 C 
HETATM   46  C   UNK N   1      29.231   7.983   4.207  0.00  0.00     0.153 C 
HETATM   47  C   UNK N   1      26.212   8.301   1.118  0.00  0.00     0.153 C 
HETATM   48  C   UNK N   1      25.234   8.016   6.067  0.00  0.00     0.153 C 
HETATM   49  C   UNK N   1      21.413   6.237   3.662  0.00  0.00     0.042 C 
HETATM   50  C   UNK N   1      20.123  11.418   2.694  0.00  0.00     0.042 C 
HETATM   51  C   UNK N   1      23.727  13.979   3.713  0.00  0.00     0.153 C 
HETATM   52  C   UNK N   1      28.559  14.818   4.175  0.00  0.00     0.153 C 
HETATM   53  C   UNK N   1      31.266  14.031   6.130  0.00  0.00     0.154 C 
HETATM   54  H   UNK N   1      25.181  17.594   3.094  0.00  0.00     0.163 HD
HETATM   55  H   UNK N   1      21.190  12.925   4.261  0.00  0.00     0.163 HD
HETATM   56  H   UNK N   1      22.392   8.723   2.940  0.00  0.00     0.163 HD
HETATM   57  H   UNK N   1      33.005  11.494   3.667  0.00  0.00     0.163 HD
ENDROOT
BRANCH  41  58
HETATM   58  C   UNK N   1      33.869  10.025   1.072  0.00  0.00     0.154 C 
BRANCH  58  59
HETATM   59  C   UNK N   1      35.295  10.146   1.582  0.00  0.00     0.016 C 
HETATM   60  C   UNK N   1      36.199  10.250   0.362  0.00  0.00     0.013 C 
BRANCH  59  61
HETATM   61  C   UNK N   1      35.745   8.922   2.340  0.00  0.00     0.033 C 
BRANCH  61  62
HETATM   62  C   UNK N   1      35.972   9.337   3.744  0.00  0.00    -0.031 C 
HETATM   63  C   UNK N   1      36.093  10.618   4.058  0.00  0.00    -0.035 C 
HETATM   64  C   UNK N   1      36.337  10.999   5.475  0.00  0.00     0.036 C 
ENDBRANCH  61  62
ENDBRANCH  59  61
ENDBRANCH  58  59
BRANCH  58  65
HETATM   65  O   UNK N   1      33.841   9.465  -0.207  0.00  0.00    -0.393 OA
HETATM   66  H   UNK N   1      33.590   8.620  -0.611  0.00  0.00     0.210 HD
ENDBRANCH  58  65
ENDBRANCH  41  58
BRANCH  37  67
HETATM   67  C   UNK N   1      32.358   7.225   2.778  0.00  0.00     0.009 C 
HETATM   68  C   UNK N   1      32.605   6.775   1.352  0.00  0.00     0.012 C 
HETATM   69  C   UNK N   1      32.153   6.064   3.722  0.00  0.00     0.012 C 
ENDBRANCH  37  67
BRANCH   1  70
HETATM   70  C   UNK N   1      34.577  14.111   4.205  0.00  0.00     0.030 C 
HETATM   71  C   UNK N   1      34.967  14.534   5.612  0.00  0.00     0.007 C 
ENDBRANCH   1  70
BRANCH  33  72
HETATM   72  C   UNK N   1      28.047   5.399   2.608  0.00  0.00     0.039 C 
BRANCH  72  73
HETATM   73  C   UNK N   1      28.344   4.178   1.762  0.00  0.00    -0.020 C 
HETATM   74  C   UNK N   1      29.821   3.849   1.769  0.00  0.00     0.009 C 
HETATM   75  C   UNK N   1      27.600   3.010   2.370  0.00  0.00     0.009 C 
ENDBRANCH  72  73
ENDBRANCH  33  72
BRANCH   5  76
HETATM   76  S   UNK N   1      32.384  17.338   5.536  0.00  0.00    -0.132 SA
BRANCH  76  77
HETATM   77  C   UNK N   1      32.281  17.167   7.357  0.00  0.00     0.106 C 
BRANCH  77  78
HETATM   78  C   UNK N   1      33.574  17.510   8.096  0.00  0.00     0.281 C 
BRANCH  78  79
HETATM   79  N   UNK N   1      34.170  16.332   8.711  0.00  0.00     0.080 N 
HETATM   80  C   UNK N   1      33.078  15.478   9.146  0.00  0.00     0.309 C 
HETATM   81  C   UNK N   1      34.877  16.753   9.906  0.00  0.00     0.309 C 
ENDBRANCH  78  79
ENDBRANCH  77  78
ENDBRANCH  76  77
ENDBRANCH   5  76
BRANCH  29  82
HETATM   82  C   UNK N   1      24.034   6.843   2.632  0.00  0.00     0.039 C 
BRANCH  82  83
HETATM   83  C   UNK N   1      24.697   5.449   2.561  0.00  0.00    -0.020 C 
HETATM   84  C   UNK N   1      24.589   4.858   1.172  0.00  0.00     0.009 C 
HETATM   85  C   UNK N   1      24.206   4.474   3.606  0.00  0.00     0.009 C 
ENDBRANCH  82  83
ENDBRANCH  29  82
BRANCH   9  86
HETATM   86  C   UNK N   1      27.378  17.899   5.552  0.00  0.00     0.072 C 
BRANCH  86  87
HETATM   87  C   UNK N   1      26.960  19.378   5.552  0.00  0.00     0.053 C 
HETATM   88  C   UNK N   1      27.117  20.048   4.202  0.00  0.00     0.045 C 
HETATM   89  C   UNK N   1      27.899  20.105   6.489  0.00  0.00     0.045 C 
BRANCH  87  90
HETATM   90  O   UNK N   1      25.647  19.531   5.996  0.00  0.00    -0.391 OA
HETATM   91  H   UNK N   1      24.695  19.686   5.906  0.00  0.00     0.210 HD
ENDBRANCH  87  90
ENDBRANCH  86  87
ENDBRANCH   9  86
BRANCH  13  92
HETATM   92  C   UNK N   1      23.128  18.133   4.641  0.00  0.00     0.009 C 
HETATM   93  C   UNK N   1      23.507  19.191   3.626  0.00  0.00     0.012 C 
HETATM   94  C   UNK N   1      21.622  18.114   4.829  0.00  0.00     0.012 C 
ENDBRANCH  13  92
BRANCH  17  95
HETATM   95  C   UNK N   1      21.632  13.886   6.760  0.00  0.00     0.039 C 
BRANCH  95  96
HETATM   96  C   UNK N   1      21.545  13.528   8.254  0.00  0.00    -0.020 C 
HETATM   97  C   UNK N   1      22.890  13.241   8.882  0.00  0.00     0.009 C 
HETATM   98  C   UNK N   1      20.858  14.636   9.020  0.00  0.00     0.009 C 
ENDBRANCH  95  96
ENDBRANCH  17  95
TORSDOF 21
ENDMDL
MODEL 2
REMARK VINA RESULT:      -5.9      2.472      6.981
REMARK  21 active torsions:
REMARK  status: ('A' for Active; 'I' for Inactive)
REMARK    1  A    between atoms: C_3  and  C_2 
REMARK    2  A    between atoms: C_7  and  S_86 
REMARK    3  A    between atoms: C_11  and  C_80 
REMARK    4  A    between atoms: C_15  and  C_77 
REMARK    5  A    between atoms: C_19  and  C_72 
REMARK    6  A    between atoms: C_31  and  C_65 
REMARK    7  A    between atoms: C_35  and  C_60 
REMARK    8  A    between atoms: C_39  and  C_56 
REMARK    9  A    between atoms: C_43  and  C_47 
REMARK   10  A    between atoms: C_47  and  C_48 
REMARK   11  A    between atoms: C_47  and  O_54 
REMARK   12  A    between atoms: C_48  and  C_50 
REMARK   13  A    between atoms: C_50  and  C_51 
REMARK   14  A    between atoms: C_60  and  C_61 
REMARK   15  A    between atoms: C_65  and  C_66 
REMARK   16  A    between atoms: C_72  and  C_73 
REMARK   17  A    between atoms: C_80  and  C_81 
REMARK   18  A    between atoms: C_81  and  O_84 
REMARK   19  A    between atoms: S_86  and  C_87 
REMARK   20  A    between atoms: C_87  and  C_88 
REMARK   21  A    between atoms: C_88  and  N_89 
ROOT
HETATM    1  C   UNK N   1      27.765  16.199   5.221  0.00  0.00     0.176 C 
HETATM    2  C   UNK N   1      26.548  15.981   4.392  0.00  0.00     0.243 C 
HETATM    3  O   UNK N   1      26.455  16.509   3.289  0.00  0.00    -0.271 OA
HETATM    4  N   UNK N   1      25.473  15.384   4.944  0.00  0.00    -0.333 N 
HETATM    5  C   UNK N   1      24.183  15.895   4.605  0.00  0.00     0.241 C 
HETATM    6  C   UNK N   1      23.368  15.452   3.438  0.00  0.00     0.253 C 
HETATM    7  O   UNK N   1      22.517  16.213   3.058  0.00  0.00    -0.270 OA
HETATM    8  N   UNK N   1      23.393  14.182   2.958  0.00  0.00    -0.340 N 
HETATM    9  C   UNK N   1      22.167  13.726   2.289  0.00  0.00     0.181 C 
HETATM   10  C   UNK N   1      22.118  12.254   2.087  0.00  0.00     0.241 C 
HETATM   11  O   UNK N   1      22.484  11.515   2.988  0.00  0.00    -0.271 OA
HETATM   12  N   UNK N   1      21.303  11.811   1.106  0.00  0.00    -0.346 N 
HETATM   13  C   UNK N   1      20.606  10.542   1.067  0.00  0.00     0.180 C 
HETATM   14  C   UNK N   1      20.858   9.603   2.248  0.00  0.00     0.243 C 
HETATM   15  O   UNK N   1      20.008   9.487   3.122  0.00  0.00    -0.271 OA
HETATM   16  N   UNK N   1      21.971   8.808   2.263  0.00  0.00    -0.341 N 
HETATM   17  C   UNK N   1      22.089   7.677   3.203  0.00  0.00     0.179 C 
HETATM   18  C   UNK N   1      23.234   6.778   2.813  0.00  0.00     0.241 C 
HETATM   19  O   UNK N   1      24.180   6.609   3.569  0.00  0.00    -0.271 OA
HETATM   20  N   UNK N   1      23.199   6.209   1.578  0.00  0.00    -0.346 N 
HETATM   21  C   UNK N   1      24.238   5.468   0.910  0.00  0.00     0.172 C 
HETATM   22  C   UNK N   1      24.834   4.425   1.774  0.00  0.00     0.240 C 
HETATM   23  O   UNK N   1      24.126   3.618   2.362  0.00  0.00    -0.271 OA
HETATM   24  N   UNK N   1      26.170   4.426   1.939  0.00  0.00    -0.346 N 
HETATM   25  C   UNK N   1      26.795   3.567   2.894  0.00  0.00     0.172 C 
HETATM   26  C   UNK N   1      27.033   4.335   4.165  0.00  0.00     0.242 C 
HETATM   27  O   UNK N   1      26.531   3.871   5.177  0.00  0.00    -0.271 OA
HETATM   28  N   UNK N   1      27.617   5.586   4.218  0.00  0.00    -0.341 N 
HETATM   29  C   UNK N   1      28.281   6.267   3.078  0.00  0.00     0.179 C 
HETATM   30  C   UNK N   1      29.349   7.254   3.551  0.00  0.00     0.243 C 
HETATM   31  O   UNK N   1      29.698   7.201   4.720  0.00  0.00    -0.271 OA
HETATM   32  N   UNK N   1      30.066   8.017   2.657  0.00  0.00    -0.341 N 
HETATM   33  C   UNK N   1      31.408   8.491   2.981  0.00  0.00     0.179 C 
HETATM   34  C   UNK N   1      31.526   9.948   3.256  0.00  0.00     0.243 C 
HETATM   35  O   UNK N   1      32.241  10.600   2.510  0.00  0.00    -0.271 OA
HETATM   36  N   UNK N   1      30.948  10.533   4.349  0.00  0.00    -0.341 N 
HETATM   37  C   UNK N   1      31.346  11.843   4.768  0.00  0.00     0.182 C 
HETATM   38  C   UNK N   1      30.558  13.060   4.527  0.00  0.00     0.243 C 
HETATM   39  O   UNK N   1      30.386  13.768   5.507  0.00  0.00    -0.271 OA
HETATM   40  N   UNK N   1      30.386  13.558   3.252  0.00  0.00    -0.339 N 
HETATM   41  C   UNK N   1      30.634  14.973   3.028  0.00  0.00     0.207 C 
HETATM   42  C   UNK N   1      29.489  15.820   3.470  0.00  0.00     0.243 C 
HETATM   43  O   UNK N   1      29.010  16.632   2.696  0.00  0.00    -0.271 OA
HETATM   44  N   UNK N   1      28.946  15.602   4.685  0.00  0.00    -0.346 N 
HETATM   45  C   UNK N   1      30.443  12.701   2.098  0.00  0.00     0.153 C 
HETATM   46  C   UNK N   1      30.073   9.819   5.236  0.00  0.00     0.153 C 
HETATM   47  C   UNK N   1      29.652   8.112   1.277  0.00  0.00     0.153 C 
HETATM   48  C   UNK N   1      27.346   6.361   5.417  0.00  0.00     0.153 C 
HETATM   49  C   UNK N   1      27.869   2.677   2.301  0.00  0.00     0.042 C 
HETATM   50  C   UNK N   1      23.653   4.844  -0.339  0.00  0.00     0.042 C 
HETATM   51  C   UNK N   1      22.997   9.039   1.260  0.00  0.00     0.153 C 
HETATM   52  C   UNK N   1      24.492  13.292   3.246  0.00  0.00     0.153 C 
HETATM   53  C   UNK N   1      25.596  14.661   6.192  0.00  0.00     0.154 C 
HETATM   54  H   UNK N   1      21.169  12.411   0.337  0.00  0.00     0.163 HD
HETATM   55  H   UNK N   1      22.357   6.318   1.080  0.00  0.00     0.163 HD
HETATM   56  H   UNK N   1      26.725   5.029   1.393  0.00  0.00     0.163 HD
HETATM   57  H   UNK N   1      29.414  14.959   5.265  0.00  0.00     0.163 HD
ENDROOT
BRANCH  41  58
HETATM   58  C   UNK N   1      32.041  15.210   3.629  0.00  0.00     0.154 C 
BRANCH  58  59
HETATM   59  C   UNK N   1      32.404  16.274   4.649  0.00  0.00     0.016 C 
HETATM   60  C   UNK N   1      32.666  17.560   3.881  0.00  0.00     0.013 C 
BRANCH  59  61
HETATM   61  C   UNK N   1      33.681  15.955   5.389  0.00  0.00     0.033 C 
BRANCH  61  62
HETATM   62  C   UNK N   1      34.068  17.175   6.137  0.00  0.00    -0.031 C 
HETATM   63  C   UNK N   1      34.171  17.153   7.457  0.00  0.00    -0.035 C 
HETATM   64  C   UNK N   1      34.544  18.400   8.178  0.00  0.00     0.036 C 
ENDBRANCH  61  62
ENDBRANCH  59  61
ENDBRANCH  58  59
BRANCH  58  65
HETATM   65  O   UNK N   1      32.981  15.164   2.596  0.00  0.00    -0.393 OA
HETATM   66  H   UNK N   1      33.669  15.742   2.233  0.00  0.00     0.210 HD
ENDBRANCH  58  65
ENDBRANCH  41  58
BRANCH  37  67
HETATM   67  C   UNK N   1      32.762  12.091   5.300  0.00  0.00     0.009 C 
HETATM   68  C   UNK N   1      33.818  12.272   4.227  0.00  0.00     0.012 C 
HETATM   69  C   UNK N   1      33.172  11.086   6.350  0.00  0.00     0.012 C 
ENDBRANCH  37  67
BRANCH   1  70
HETATM   70  C   UNK N   1      27.932  17.651   5.670  0.00  0.00     0.030 C 
HETATM   71  C   UNK N   1      29.098  17.869   6.622  0.00  0.00     0.007 C 
ENDBRANCH   1  70
BRANCH  33  72
HETATM   72  C   UNK N   1      32.157   7.627   4.015  0.00  0.00     0.039 C 
BRANCH  72  73
HETATM   73  C   UNK N   1      33.593   7.286   3.673  0.00  0.00    -0.020 C 
HETATM   74  C   UNK N   1      34.558   8.264   4.309  0.00  0.00     0.009 C 
HETATM   75  C   UNK N   1      33.881   5.911   4.233  0.00  0.00     0.009 C 
ENDBRANCH  72  73
ENDBRANCH  33  72
BRANCH   5  76
HETATM   76  S   UNK N   1      23.832  17.582   5.244  0.00  0.00    -0.132 SA
BRANCH  76  77
HETATM   77  C   UNK N   1      22.220  17.227   6.036  0.00  0.00     0.106 C 
BRANCH  77  78
HETATM   78  C   UNK N   1      22.168  15.898   6.790  0.00  0.00     0.281 C 
BRANCH  78  79
HETATM   79  N   UNK N   1      20.808  15.553   7.179  0.00  0.00     0.080 N 
HETATM   80  C   UNK N   1      20.670  15.878   8.588  0.00  0.00     0.309 C 
HETATM   81  C   UNK N   1      20.652  14.115   7.061  0.00  0.00     0.309 C 
ENDBRANCH  78  79
ENDBRANCH  77  78
ENDBRANCH  76  77
ENDBRANCH   5  76
BRANCH  29  82
HETATM   82  C   UNK N   1      29.096   5.282   2.194  0.00  0.00     0.039 C 
BRANCH  82  83
HETATM   83  C   UNK N   1      30.520   5.005   2.723  0.00  0.00    -0.020 C 
HETATM   84  C   UNK N   1      31.501   4.804   1.588  0.00  0.00     0.009 C 
HETATM   85  C   UNK N   1      30.604   3.871   3.719  0.00  0.00     0.009 C 
ENDBRANCH  82  83
ENDBRANCH  29  82
BRANCH   9  86
HETATM   86  C   UNK N   1      20.975  13.933   3.271  0.00  0.00     0.072 C 
BRANCH  86  87
HETATM   87  C   UNK N   1      19.711  14.668   2.799  0.00  0.00     0.053 C 
HETATM   88  C   UNK N   1      19.848  15.275   1.418  0.00  0.00     0.045 C 
HETATM   89  C   UNK N   1      19.494  15.829   3.743  0.00  0.00     0.045 C 
BRANCH  87  90
HETATM   90  O   UNK N   1      18.599  13.829   2.828  0.00  0.00    -0.391 OA
HETATM   91  H   UNK N   1      18.102  13.012   2.670  0.00  0.00     0.210 HD
ENDBRANCH  87  90
ENDBRANCH  86  87
ENDBRANCH   9  86
BRANCH  13  92
HETATM   92  C   UNK N   1      19.120  10.844   0.830  0.00  0.00     0.009 C 
HETATM   93  C   UNK N   1      18.907  12.136   0.069  0.00  0.00     0.012 C 
HETATM   94  C   UNK N   1      18.400   9.707   0.128  0.00  0.00     0.012 C 
ENDBRANCH  13  92
BRANCH  17  95
HETATM   95  C   UNK N   1      20.792   6.824   3.239  0.00  0.00     0.039 C 
BRANCH  95  96
HETATM   96  C   UNK N   1      20.361   6.370   4.644  0.00  0.00    -0.020 C 
HETATM   97  C   UNK N   1      20.955   7.208   5.753  0.00  0.00     0.009 C 
HETATM   98  C   UNK N   1      18.854   6.378   4.758  0.00  0.00     0.009 C 
ENDBRANCH  95  96
ENDBRANCH  17  95
TORSDOF 21
ENDMDL
MODEL 3
REMARK VINA RESULT:      -5.8      2.845     10.503
REMARK  21 active torsions:
REMARK  status: ('A' for Active; 'I' for Inactive)
REMARK    1  A    between atoms: C_3  and  C_2 
REMARK    2  A    between atoms: C_7  and  S_86 
REMARK    3  A    between atoms: C_11  and  C_80 
REMARK    4  A    between atoms: C_15  and  C_77 
REMARK    5  A    between atoms: C_19  and  C_72 
REMARK    6  A    between atoms: C_31  and  C_65 
REMARK    7  A    between atoms: C_35  and  C_60 
REMARK    8  A    between atoms: C_39  and  C_56 
REMARK    9  A    between atoms: C_43  and  C_47 
REMARK   10  A    between atoms: C_47  and  C_48 
REMARK   11  A    between atoms: C_47  and  O_54 
REMARK   12  A    between atoms: C_48  and  C_50 
REMARK   13  A    between atoms: C_50  and  C_51 
REMARK   14  A    between atoms: C_60  and  C_61 
REMARK   15  A    between atoms: C_65  and  C_66 
REMARK   16  A    between atoms: C_72  and  C_73 
REMARK   17  A    between atoms: C_80  and  C_81 
REMARK   18  A    between atoms: C_81  and  O_84 
REMARK   19  A    between atoms: S_86  and  C_87 
REMARK   20  A    between atoms: C_87  and  C_88 
REMARK   21  A    between atoms: C_88  and  N_89 
ROOT
HETATM    1  C   UNK N   1      23.694  15.692   5.388  0.00  0.00     0.176 C 
HETATM    2  C   UNK N   1      23.011  14.952   4.291  0.00  0.00     0.243 C 
HETATM    3  O   UNK N   1      22.628  15.554   3.292  0.00  0.00    -0.271 OA
HETATM    4  N   UNK N   1      22.630  13.676   4.494  0.00  0.00    -0.333 N 
HETATM    5  C   UNK N   1      21.365  13.269   3.969  0.00  0.00     0.241 C 
HETATM    6  C   UNK N   1      21.143  12.729   2.598  0.00  0.00     0.253 C 
HETATM    7  O   UNK N   1      20.021  12.799   2.169  0.00  0.00    -0.270 OA
HETATM    8  N   UNK N   1      22.066  11.983   1.938  0.00  0.00    -0.340 N 
HETATM    9  C   UNK N   1      21.535  11.029   0.955  0.00  0.00     0.181 C 
HETATM   10  C   UNK N   1      22.532  10.018   0.515  0.00  0.00     0.241 C 
HETATM   11  O   UNK N   1      23.268   9.504   1.343  0.00  0.00    -0.271 OA
HETATM   12  N   UNK N   1      22.302   9.428  -0.678  0.00  0.00    -0.346 N 
HETATM   13  C   UNK N   1      22.686   8.088  -1.068  0.00  0.00     0.180 C 
HETATM   14  C   UNK N   1      23.466   7.284  -0.026  0.00  0.00     0.243 C 
HETATM   15  O   UNK N   1      22.895   6.408   0.612  0.00  0.00    -0.271 OA
HETATM   16  N   UNK N   1      24.816   7.460   0.102  0.00  0.00    -0.341 N 
HETATM   17  C   UNK N   1      25.644   6.496   0.853  0.00  0.00     0.179 C 
HETATM   18  C   UNK N   1      27.108   6.729   0.581  0.00  0.00     0.241 C 
HETATM   19  O   UNK N   1      27.869   7.036   1.488  0.00  0.00    -0.271 OA
HETATM   20  N   UNK N   1      27.535   6.634  -0.706  0.00  0.00    -0.346 N 
HETATM   21  C   UNK N   1      28.826   6.980  -1.243  0.00  0.00     0.172 C 
HETATM   22  C   UNK N   1      29.939   6.415  -0.448  0.00  0.00     0.240 C 
HETATM   23  O   UNK N   1      29.965   5.225  -0.164  0.00  0.00    -0.271 OA
HETATM   24  N   UNK N   1      30.889   7.257   0.001  0.00  0.00    -0.346 N 
HETATM   25  C   UNK N   1      31.891   6.816   0.920  0.00  0.00     0.172 C 
HETATM   26  C   UNK N   1      31.468   7.175   2.318  0.00  0.00     0.242 C 
HETATM   27  O   UNK N   1      31.384   6.248   3.109  0.00  0.00    -0.271 OA
HETATM   28  N   UNK N   1      31.015   8.423   2.695  0.00  0.00    -0.341 N 
HETATM   29  C   UNK N   1      31.070   9.643   1.850  0.00  0.00     0.179 C 
HETATM   30  C   UNK N   1      31.128  10.916   2.694  0.00  0.00     0.243 C 
HETATM   31  O   UNK N   1      31.360  10.801   3.888  0.00  0.00    -0.271 OA
HETATM   32  N   UNK N   1      31.153  12.163   2.111  0.00  0.00    -0.341 N 
HETATM   33  C   UNK N   1      31.771  13.298   2.790  0.00  0.00     0.179 C 
HETATM   34  C   UNK N   1      30.829  14.324   3.313  0.00  0.00     0.243 C 
HETATM   35  O   UNK N   1      30.922  15.452   2.853  0.00  0.00    -0.271 OA
HETATM   36  N   UNK N   1      29.957  14.062   4.334  0.00  0.00    -0.341 N 
HETATM   37  C   UNK N   1      29.312  15.131   5.033  0.00  0.00     0.182 C 
HETATM   38  C   UNK N   1      27.912  15.526   4.824  0.00  0.00     0.243 C 
HETATM   39  O   UNK N   1      27.251  15.648   5.843  0.00  0.00    -0.271 OA
HETATM   40  N   UNK N   1      27.502  16.099   3.638  0.00  0.00    -0.339 N 
HETATM   41  C   UNK N   1      26.705  17.314   3.702  0.00  0.00     0.207 C 
HETATM   42  C   UNK N   1      25.274  17.033   4.015  0.00  0.00     0.243 C 
HETATM   43  O   UNK N   1      24.402  17.489   3.295  0.00  0.00    -0.271 OA
HETATM   44  N   UNK N   1      24.981  16.197   5.032  0.00  0.00    -0.346 N 
HETATM   45  C   UNK N   1      28.192  15.842   2.402  0.00  0.00     0.153 C 
HETATM   46  C   UNK N   1      29.786  12.746   4.884  0.00  0.00     0.153 C 
HETATM   47  C   UNK N   1      30.853  12.322   0.707  0.00  0.00     0.153 C 
HETATM   48  C   UNK N   1      30.226   8.469   3.915  0.00  0.00     0.153 C 
HETATM   49  C   UNK N   1      33.307   7.061   0.439  0.00  0.00     0.042 C 
HETATM   50  C   UNK N   1      28.898   6.487  -2.672  0.00  0.00     0.042 C 
HETATM   51  C   UNK N   1      25.437   8.568  -0.604  0.00  0.00     0.153 C 
HETATM   52  C   UNK N   1      23.460  12.011   2.312  0.00  0.00     0.153 C 
HETATM   53  C   UNK N   1      23.163  12.920   5.607  0.00  0.00     0.154 C 
HETATM   54  H   UNK N   1      21.824   9.965  -1.351  0.00  0.00     0.163 HD
HETATM   55  H   UNK N   1      26.878   6.285  -1.351  0.00  0.00     0.163 HD
HETATM   56  H   UNK N   1      30.893   8.192  -0.308  0.00  0.00     0.163 HD
HETATM   57  H   UNK N   1      25.737  15.903   5.589  0.00  0.00     0.163 HD
ENDROOT
BRANCH  41  58
HETATM   58  C   UNK N   1      27.522  18.253   4.623  0.00  0.00     0.154 C 
BRANCH  58  59
HETATM   59  C   UNK N   1      26.976  19.035   5.805  0.00  0.00     0.016 C 
HETATM   60  C   UNK N   1      26.340  20.300   5.249  0.00  0.00     0.013 C 
BRANCH  59  61
HETATM   61  C   UNK N   1      28.060  19.486   6.752  0.00  0.00     0.033 C 
BRANCH  61  62
HETATM   62  C   UNK N   1      28.148  18.473   7.830  0.00  0.00    -0.031 C 
HETATM   63  C   UNK N   1      29.142  18.503   8.705  0.00  0.00    -0.035 C 
HETATM   64  C   UNK N   1      29.210  17.460   9.764  0.00  0.00     0.036 C 
ENDBRANCH  61  62
ENDBRANCH  59  61
ENDBRANCH  58  59
BRANCH  58  65
HETATM   65  O   UNK N   1      28.343  19.056   3.829  0.00  0.00    -0.393 OA
HETATM   66  H   UNK N   1      28.393  19.325   2.899  0.00  0.00     0.210 HD
ENDBRANCH  58  65
ENDBRANCH  41  58
BRANCH  37  67
HETATM   67  C   UNK N   1      30.130  16.102   5.891  0.00  0.00     0.009 C 
HETATM   68  C   UNK N   1      30.767  17.244   5.123  0.00  0.00     0.012 C 
HETATM   69  C   UNK N   1      31.114  15.392   6.791  0.00  0.00     0.012 C 
ENDBRANCH  37  67
BRANCH   1  70
HETATM   70  C   UNK N   1      22.783  16.701   6.089  0.00  0.00     0.030 C 
HETATM   71  C   UNK N   1      21.821  16.071   7.083  0.00  0.00     0.007 C 
ENDBRANCH   1  70
BRANCH  33  72
HETATM   72  C   UNK N   1      32.861  12.915   3.810  0.00  0.00     0.039 C 
BRANCH  72  73
HETATM   73  C   UNK N   1      34.171  13.666   3.688  0.00  0.00    -0.020 C 
HETATM   74  C   UNK N   1      34.294  14.344   2.341  0.00  0.00     0.009 C 
HETATM   75  C   UNK N   1      34.182  14.737   4.756  0.00  0.00     0.009 C 
ENDBRANCH  72  73
ENDBRANCH  33  72
BRANCH   5  76
HETATM   76  S   UNK N   1      19.911  14.050   4.778  0.00  0.00    -0.132 SA
BRANCH  76  77
HETATM   77  C   UNK N   1      19.634  15.394   3.566  0.00  0.00     0.106 C 
BRANCH  77  78
HETATM   78  C   UNK N   1      19.567  16.792   4.181  0.00  0.00     0.281 C 
BRANCH  78  79
HETATM   79  N   UNK N   1      19.693  17.832   3.169  0.00  0.00     0.080 N 
HETATM   80  C   UNK N   1      20.006  17.171   1.913  0.00  0.00     0.309 C 
HETATM   81  C   UNK N   1      20.836  18.658   3.507  0.00  0.00     0.309 C 
ENDBRANCH  78  79
ENDBRANCH  77  78
ENDBRANCH  76  77
ENDBRANCH   5  76
BRANCH  29  82
HETATM   82  C   UNK N   1      32.380   9.727   1.018  0.00  0.00     0.039 C 
BRANCH  82  83
HETATM   83  C   UNK N   1      33.575  10.318   1.798  0.00  0.00    -0.020 C 
HETATM   84  C   UNK N   1      34.517  11.066   0.880  0.00  0.00     0.009 C 
HETATM   85  C   UNK N   1      34.323   9.314   2.644  0.00  0.00     0.009 C 
ENDBRANCH  82  83
ENDBRANCH  29  82
BRANCH   9  86
HETATM   86  C   UNK N   1      20.491  10.124   1.675  0.00  0.00     0.072 C 
BRANCH  86  87
HETATM   87  C   UNK N   1      19.073   9.983   1.102  0.00  0.00     0.053 C 
HETATM   88  C   UNK N   1      18.700   8.555   0.761  0.00  0.00     0.045 C 
HETATM   89  C   UNK N   1      19.044  10.743  -0.206  0.00  0.00     0.045 C 
BRANCH  87  90
HETATM   90  O   UNK N   1      18.121  10.516   1.971  0.00  0.00    -0.391 OA
HETATM   91  H   UNK N   1      17.671  10.643   2.820  0.00  0.00     0.210 HD
ENDBRANCH  87  90
ENDBRANCH  86  87
ENDBRANCH   9  86
BRANCH  13  92
HETATM   92  C   UNK N   1      21.421   7.378  -1.572  0.00  0.00     0.009 C 
HETATM   93  C   UNK N   1      20.529   8.293  -2.384  0.00  0.00     0.012 C 
HETATM   94  C   UNK N   1      21.735   6.124  -2.367  0.00  0.00     0.012 C 
ENDBRANCH  13  92
BRANCH  17  95
HETATM   95  C   UNK N   1      25.305   5.030   0.470  0.00  0.00     0.039 C 
BRANCH  95  96
HETATM   96  C   UNK N   1      25.318   4.040   1.646  0.00  0.00    -0.020 C 
HETATM   97  C   UNK N   1      26.612   3.268   1.767  0.00  0.00     0.009 C 
HETATM   98  C   UNK N   1      25.041   4.764   2.945  0.00  0.00     0.009 C 
ENDBRANCH  95  96
ENDBRANCH  17  95
TORSDOF 21
ENDMDL
MODEL 4
REMARK VINA RESULT:      -5.8      2.795     10.247
REMARK  21 active torsions:
REMARK  status: ('A' for Active; 'I' for Inactive)
REMARK    1  A    between atoms: C_3  and  C_2 
REMARK    2  A    between atoms: C_7  and  S_86 
REMARK    3  A    between atoms: C_11  and  C_80 
REMARK    4  A    between atoms: C_15  and  C_77 
REMARK    5  A    between atoms: C_19  and  C_72 
REMARK    6  A    between atoms: C_31  and  C_65 
REMARK    7  A    between atoms: C_35  and  C_60 
REMARK    8  A    between atoms: C_39  and  C_56 
REMARK    9  A    between atoms: C_43  and  C_47 
REMARK   10  A    between atoms: C_47  and  C_48 
REMARK   11  A    between atoms: C_47  and  O_54 
REMARK   12  A    between atoms: C_48  and  C_50 
REMARK   13  A    between atoms: C_50  and  C_51 
REMARK   14  A    between atoms: C_60  and  C_61 
REMARK   15  A    between atoms: C_65  and  C_66 
REMARK   16  A    between atoms: C_72  and  C_73 
REMARK   17  A    between atoms: C_80  and  C_81 
REMARK   18  A    between atoms: C_81  and  O_84 
REMARK   19  A    between atoms: S_86  and  C_87 
REMARK   20  A    between atoms: C_87  and  C_88 
REMARK   21  A    between atoms: C_88  and  N_89 
ROOT
HETATM    1  C   UNK N   1      24.516  16.661   4.474  0.00  0.00     0.176 C 
HETATM    2  C   UNK N   1      25.878  16.096   4.682  0.00  0.00     0.243 C 
HETATM    3  O   UNK N   1      26.252  15.800   5.812  0.00  0.00    -0.271 OA
HETATM    4  N   UNK N   1      26.761  16.114   3.664  0.00  0.00    -0.333 N 
HETATM    5  C   UNK N   1      28.121  16.426   3.972  0.00  0.00     0.241 C 
HETATM    6  C   UNK N   1      29.158  15.430   4.367  0.00  0.00     0.253 C 
HETATM    7  O   UNK N   1      30.115  15.857   4.958  0.00  0.00    -0.270 OA
HETATM    8  N   UNK N   1      29.174  14.155   3.900  0.00  0.00    -0.340 N 
HETATM    9  C   UNK N   1      30.495  13.513   3.835  0.00  0.00     0.181 C 
HETATM   10  C   UNK N   1      30.508  12.272   3.018  0.00  0.00     0.241 C 
HETATM   11  O   UNK N   1      29.903  12.248   1.958  0.00  0.00    -0.271 OA
HETATM   12  N   UNK N   1      31.501  11.395   3.277  0.00  0.00    -0.346 N 
HETATM   13  C   UNK N   1      32.117  10.482   2.336  0.00  0.00     0.180 C 
HETATM   14  C   UNK N   1      31.547  10.499   0.916  0.00  0.00     0.243 C 
HETATM   15  O   UNK N   1      32.165  11.065   0.023  0.00  0.00    -0.271 OA
HETATM   16  N   UNK N   1      30.419   9.783   0.626  0.00  0.00    -0.341 N 
HETATM   17  C   UNK N   1      30.024   9.514  -0.771  0.00  0.00     0.179 C 
HETATM   18  C   UNK N   1      28.952   8.456  -0.826  0.00  0.00     0.241 C 
HETATM   19  O   UNK N   1      27.849   8.709  -1.290  0.00  0.00    -0.271 OA
HETATM   20  N   UNK N   1      29.241   7.236  -0.299  0.00  0.00    -0.346 N 
HETATM   21  C   UNK N   1      28.345   6.131  -0.071  0.00  0.00     0.172 C 
HETATM   22  C   UNK N   1      27.508   5.828  -1.254  0.00  0.00     0.240 C 
HETATM   23  O   UNK N   1      28.015   5.670  -2.357  0.00  0.00    -0.271 OA
HETATM   24  N   UNK N   1      26.173   5.789  -1.092  0.00  0.00    -0.346 N 
HETATM   25  C   UNK N   1      25.297   5.681  -2.216  0.00  0.00     0.172 C 
HETATM   26  C   UNK N   1      24.815   7.053  -2.598  0.00  0.00     0.242 C 
HETATM   27  O   UNK N   1      25.043   7.404  -3.745  0.00  0.00    -0.271 OA
HETATM   28  N   UNK N   1      24.304   7.973  -1.703  0.00  0.00    -0.341 N 
HETATM   29  C   UNK N   1      23.961   7.686  -0.287  0.00  0.00     0.179 C 
HETATM   30  C   UNK N   1      22.868   8.622   0.232  0.00  0.00     0.243 C 
HETATM   31  O   UNK N   1      22.256   9.294  -0.584  0.00  0.00    -0.271 OA
HETATM   32  N   UNK N   1      22.421   8.551   1.532  0.00  0.00    -0.341 N 
HETATM   33  C   UNK N   1      21.068   8.971   1.885  0.00  0.00     0.179 C 
HETATM   34  C   UNK N   1      20.971  10.242   2.653  0.00  0.00     0.243 C 
HETATM   35  O   UNK N   1      20.486  10.180   3.773  0.00  0.00    -0.271 OA
HETATM   36  N   UNK N   1      21.312  11.450   2.111  0.00  0.00    -0.341 N 
HETATM   37  C   UNK N   1      20.901  12.670   2.737  0.00  0.00     0.182 C 
HETATM   38  C   UNK N   1      21.790  13.526   3.536  0.00  0.00     0.243 C 
HETATM   39  O   UNK N   1      21.769  14.711   3.242  0.00  0.00    -0.271 OA
HETATM   40  N   UNK N   1      22.279  13.105   4.756  0.00  0.00    -0.339 N 
HETATM   41  C   UNK N   1      22.168  14.010   5.889  0.00  0.00     0.207 C 
HETATM   42  C   UNK N   1      23.225  15.062   5.873  0.00  0.00     0.243 C 
HETATM   43  O   UNK N   1      23.914  15.234   6.865  0.00  0.00    -0.271 OA
HETATM   44  N   UNK N   1      23.460  15.734   4.728  0.00  0.00    -0.346 N 
HETATM   45  C   UNK N   1      22.443  11.708   5.056  0.00  0.00     0.153 C 
HETATM   46  C   UNK N   1      21.918  11.572   0.815  0.00  0.00     0.153 C 
HETATM   47  C   UNK N   1      23.147   7.783   2.516  0.00  0.00     0.153 C 
HETATM   48  C   UNK N   1      24.333   9.360  -2.135  0.00  0.00     0.153 C 
HETATM   49  C   UNK N   1      24.342   4.507  -2.132  0.00  0.00     0.042 C 
HETATM   50  C   UNK N   1      29.167   4.920   0.315  0.00  0.00     0.042 C 
HETATM   51  C   UNK N   1      29.667   9.204   1.725  0.00  0.00     0.153 C 
HETATM   52  C   UNK N   1      27.990  13.544   3.344  0.00  0.00     0.153 C 
HETATM   53  C   UNK N   1      26.313  16.352   2.309  0.00  0.00     0.154 C 
HETATM   54  H   UNK N   1      31.842  11.372   4.201  0.00  0.00     0.163 HD
HETATM   55  H   UNK N   1      30.180   7.091  -0.041  0.00  0.00     0.163 HD
HETATM   56  H   UNK N   1      25.792   5.836  -0.185  0.00  0.00     0.163 HD
HETATM   57  H   UNK N   1      22.836  15.567   3.986  0.00  0.00     0.163 HD
ENDROOT
BRANCH  41  58
HETATM   58  C   UNK N   1      20.676  14.421   5.900  0.00  0.00     0.154 C 
BRANCH  58  59
HETATM   59  C   UNK N   1      20.146  15.843   5.933  0.00  0.00     0.016 C 
HETATM   60  C   UNK N   1      19.536  16.062   7.309  0.00  0.00     0.013 C 
BRANCH  59  61
HETATM   61  C   UNK N   1      19.036  16.071   4.937  0.00  0.00     0.033 C 
BRANCH  61  62
HETATM   62  C   UNK N   1      19.562  16.989   3.899  0.00  0.00    -0.031 C 
HETATM   63  C   UNK N   1      20.579  17.796   4.164  0.00  0.00    -0.035 C 
HETATM   64  C   UNK N   1      21.071  18.717   3.105  0.00  0.00     0.036 C 
ENDBRANCH  61  62
ENDBRANCH  59  61
ENDBRANCH  58  59
BRANCH  58  65
HETATM   65  O   UNK N   1      19.996  13.612   6.813  0.00  0.00    -0.393 OA
HETATM   66  H   UNK N   1      20.188  13.168   7.653  0.00  0.00     0.210 HD
ENDBRANCH  58  65
ENDBRANCH  41  58
BRANCH  37  67
HETATM   67  C   UNK N   1      19.417  13.045   2.808  0.00  0.00     0.009 C 
HETATM   68  C   UNK N   1      18.636  12.332   3.894  0.00  0.00     0.012 C 
HETATM   69  C   UNK N   1      18.735  12.970   1.462  0.00  0.00     0.012 C 
ENDBRANCH  37  67
BRANCH   1  70
HETATM   70  C   UNK N   1      24.330  18.033   5.122  0.00  0.00     0.030 C 
HETATM   71  C   UNK N   1      24.663  19.196   4.201  0.00  0.00     0.007 C 
ENDBRANCH   1  70
BRANCH  33  72
HETATM   72  C   UNK N   1      20.054   8.897   0.727  0.00  0.00     0.039 C 
BRANCH  72  73
HETATM   73  C   UNK N   1      18.710   8.286   1.066  0.00  0.00    -0.020 C 
HETATM   74  C   UNK N   1      17.693   9.351   1.416  0.00  0.00     0.009 C 
HETATM   75  C   UNK N   1      18.218   7.554  -0.164  0.00  0.00     0.009 C 
ENDBRANCH  72  73
ENDBRANCH  33  72
BRANCH   5  76
HETATM   76  S   UNK N   1      28.407  18.156   4.524  0.00  0.00    -0.132 SA
BRANCH  76  77
HETATM   77  C   UNK N   1      28.589  17.826   6.316  0.00  0.00     0.106 C 
BRANCH  77  78
HETATM   78  C   UNK N   1      28.185  18.994   7.215  0.00  0.00     0.281 C 
BRANCH  78  79
HETATM   79  N   UNK N   1      28.234  18.630   8.624  0.00  0.00     0.080 N 
HETATM   80  C   UNK N   1      29.627  18.687   9.034  0.00  0.00     0.309 C 
HETATM   81  C   UNK N   1      27.813  17.248   8.752  0.00  0.00     0.309 C 
ENDBRANCH  78  79
ENDBRANCH  77  78
ENDBRANCH  76  77
ENDBRANCH   5  76
BRANCH  29  82
HETATM   82  C   UNK N   1      23.319   6.283  -0.107  0.00  0.00     0.039 C 
BRANCH  82  83
HETATM   83  C   UNK N   1      21.797   6.256  -0.372  0.00  0.00    -0.020 C 
HETATM   84  C   UNK N   1      21.097   5.269   0.536  0.00  0.00     0.009 C 
HETATM   85  C   UNK N   1      21.422   6.025  -1.817  0.00  0.00     0.009 C 
ENDBRANCH  82  83
ENDBRANCH  29  82
BRANCH   9  86
HETATM   86  C   UNK N   1      31.437  14.431   2.999  0.00  0.00     0.072 C 
BRANCH  86  87
HETATM   87  C   UNK N   1      32.787  14.877   3.582  0.00  0.00     0.053 C 
HETATM   88  C   UNK N   1      32.981  16.380   3.567  0.00  0.00     0.045 C 
HETATM   89  C   UNK N   1      33.866  14.310   2.688  0.00  0.00     0.045 C 
BRANCH  87  90
HETATM   90  O   UNK N   1      32.959  14.400   4.881  0.00  0.00    -0.391 OA
HETATM   91  H   UNK N   1      33.062  14.468   5.842  0.00  0.00     0.210 HD
ENDBRANCH  87  90
ENDBRANCH  86  87
ENDBRANCH   9  86
BRANCH  13  92
HETATM   92  C   UNK N   1      33.632  10.722   2.392  0.00  0.00     0.009 C 
HETATM   93  C   UNK N   1      34.117  11.035   3.792  0.00  0.00     0.012 C 
HETATM   94  C   UNK N   1      34.426   9.562   1.818  0.00  0.00     0.012 C 
ENDBRANCH  13  92
BRANCH  17  95
HETATM   95  C   UNK N   1      31.228   9.031  -1.624  0.00  0.00     0.039 C 
BRANCH  95  96
HETATM   96  C   UNK N   1      31.227   9.532  -3.078  0.00  0.00    -0.020 C 
HETATM   97  C   UNK N   1      30.689   8.517  -4.061  0.00  0.00     0.009 C 
HETATM   98  C   UNK N   1      30.433  10.813  -3.191  0.00  0.00     0.009 C 
ENDBRANCH  95  96
ENDBRANCH  17  95
TORSDOF 21
ENDMDL
MODEL 5
REMARK VINA RESULT:      -5.5      1.590      1.945
REMARK  21 active torsions:
REMARK  status: ('A' for Active; 'I' for Inactive)
REMARK    1  A    between atoms: C_3  and  C_2 
REMARK    2  A    between atoms: C_7  and  S_86 
REMARK    3  A    between atoms: C_11  and  C_80 
REMARK    4  A    between atoms: C_15  and  C_77 
REMARK    5  A    between atoms: C_19  and  C_72 
REMARK    6  A    between atoms: C_31  and  C_65 
REMARK    7  A    between atoms: C_35  and  C_60 
REMARK    8  A    between atoms: C_39  and  C_56 
REMARK    9  A    between atoms: C_43  and  C_47 
REMARK   10  A    between atoms: C_47  and  C_48 
REMARK   11  A    between atoms: C_47  and  O_54 
REMARK   12  A    between atoms: C_48  and  C_50 
REMARK   13  A    between atoms: C_50  and  C_51 
REMARK   14  A    between atoms: C_60  and  C_61 
REMARK   15  A    between atoms: C_65  and  C_66 
REMARK   16  A    between atoms: C_72  and  C_73 
REMARK   17  A    between atoms: C_80  and  C_81 
REMARK   18  A    between atoms: C_81  and  O_84 
REMARK   19  A    between atoms: S_86  and  C_87 
REMARK   20  A    between atoms: C_87  and  C_88 
REMARK   21  A    between atoms: C_88  and  N_89 
ROOT
HETATM    1  C   UNK N   1      33.783  14.021   4.358  0.00  0.00     0.176 C 
HETATM    2  C   UNK N   1      32.702  15.025   4.162  0.00  0.00     0.243 C 
HETATM    3  O   UNK N   1      32.775  15.833   3.242  0.00  0.00    -0.271 OA
HETATM    4  N   UNK N   1      31.762  15.176   5.116  0.00  0.00    -0.333 N 
HETATM    5  C   UNK N   1      31.332  16.504   5.418  0.00  0.00     0.241 C 
HETATM    6  C   UNK N   1      30.220  17.220   4.730  0.00  0.00     0.253 C 
HETATM    7  O   UNK N   1      30.225  18.420   4.807  0.00  0.00    -0.270 OA
HETATM    8  N   UNK N   1      29.123  16.585   4.240  0.00  0.00    -0.340 N 
HETATM    9  C   UNK N   1      27.893  17.386   4.181  0.00  0.00     0.181 C 
HETATM   10  C   UNK N   1      26.669  16.571   3.965  0.00  0.00     0.241 C 
HETATM   11  O   UNK N   1      26.536  15.520   4.571  0.00  0.00    -0.271 OA
HETATM   12  N   UNK N   1      25.604  17.217   3.442  0.00  0.00    -0.346 N 
HETATM   13  C   UNK N   1      24.208  16.910   3.672  0.00  0.00     0.180 C 
HETATM   14  C   UNK N   1      23.926  15.706   4.573  0.00  0.00     0.243 C 
HETATM   15  O   UNK N   1      23.572  15.886   5.731  0.00  0.00    -0.271 OA
HETATM   16  N   UNK N   1      23.951  14.442   4.050  0.00  0.00    -0.341 N 
HETATM   17  C   UNK N   1      23.381  13.299   4.789  0.00  0.00     0.179 C 
HETATM   18  C   UNK N   1      23.239  12.100   3.887  0.00  0.00     0.241 C 
HETATM   19  O   UNK N   1      23.845  11.065   4.125  0.00  0.00    -0.271 OA
HETATM   20  N   UNK N   1      22.459  12.230   2.781  0.00  0.00    -0.346 N 
HETATM   21  C   UNK N   1      22.308  11.306   1.685  0.00  0.00     0.172 C 
HETATM   22  C   UNK N   1      22.061   9.921   2.144  0.00  0.00     0.240 C 
HETATM   23  O   UNK N   1      21.179   9.677   2.956  0.00  0.00    -0.271 OA
HETATM   24  N   UNK N   1      22.872   8.949   1.686  0.00  0.00    -0.346 N 
HETATM   25  C   UNK N   1      22.808   7.625   2.219  0.00  0.00     0.172 C 
HETATM   26  C   UNK N   1      23.869   7.468   3.274  0.00  0.00     0.242 C 
HETATM   27  O   UNK N   1      23.479   7.140   4.384  0.00  0.00    -0.271 OA
HETATM   28  N   UNK N   1      25.189   7.835   3.107  0.00  0.00    -0.341 N 
HETATM   29  C   UNK N   1      25.807   8.237   1.818  0.00  0.00     0.179 C 
HETATM   30  C   UNK N   1      27.309   7.951   1.795  0.00  0.00     0.243 C 
HETATM   31  O   UNK N   1      27.769   7.241   2.677  0.00  0.00    -0.271 OA
HETATM   32  N   UNK N   1      28.085   8.275   0.705  0.00  0.00    -0.341 N 
HETATM   33  C   UNK N   1      29.307   7.536   0.405  0.00  0.00     0.179 C 
HETATM   34  C   UNK N   1      30.578   8.267   0.655  0.00  0.00     0.243 C 
HETATM   35  O   UNK N   1      31.303   8.469  -0.307  0.00  0.00    -0.271 OA
HETATM   36  N   UNK N   1      30.982   8.619   1.914  0.00  0.00    -0.341 N 
HETATM   37  C   UNK N   1      32.336   9.013   2.159  0.00  0.00     0.182 C 
HETATM   38  C   UNK N   1      32.768  10.404   2.350  0.00  0.00     0.243 C 
HETATM   39  O   UNK N   1      33.471  10.599   3.329  0.00  0.00    -0.271 OA
HETATM   40  N   UNK N   1      32.729  11.312   1.311  0.00  0.00    -0.339 N 
HETATM   41  C   UNK N   1      33.914  12.115   1.057  0.00  0.00     0.207 C 
HETATM   42  C   UNK N   1      34.029  13.263   2.003  0.00  0.00     0.243 C 
HETATM   43  O   UNK N   1      34.186  14.389   1.563  0.00  0.00    -0.271 OA
HETATM   44  N   UNK N   1      33.859  13.041   3.321  0.00  0.00    -0.346 N 
HETATM   45  C   UNK N   1      31.799  11.168   0.224  0.00  0.00     0.153 C 
HETATM   46  C   UNK N   1      30.152   8.435   3.071  0.00  0.00     0.153 C 
HETATM   47  C   UNK N   1      27.566   9.135  -0.333  0.00  0.00     0.153 C 
HETATM   48  C   UNK N   1      25.944   8.057   4.329  0.00  0.00     0.153 C 
HETATM   49  C   UNK N   1      22.581   6.556   1.169  0.00  0.00     0.042 C 
HETATM   50  C   UNK N   1      21.166  11.782   0.813  0.00  0.00     0.042 C 
HETATM   51  C   UNK N   1      24.462  14.263   2.702  0.00  0.00     0.153 C 
HETATM   52  C   UNK N   1      29.137  15.168   3.964  0.00  0.00     0.153 C 
HETATM   53  C   UNK N   1      31.592  14.171   6.143  0.00  0.00     0.154 C 
HETATM   54  H   UNK N   1      25.797  17.973   2.841  0.00  0.00     0.163 HD
HETATM   55  H   UNK N   1      21.933  13.060   2.722  0.00  0.00     0.163 HD
HETATM   56  H   UNK N   1      23.519   9.152   0.972  0.00  0.00     0.163 HD
HETATM   57  H   UNK N   1      33.777  12.101   3.601  0.00  0.00     0.163 HD
ENDROOT
BRANCH  41  58
HETATM   58  C   UNK N   1      35.060  11.079   0.964  0.00  0.00     0.154 C 
BRANCH  58  59
HETATM   59  C   UNK N   1      36.459  11.248   1.529  0.00  0.00     0.016 C 
HETATM   60  C   UNK N   1      37.433  10.762   0.466  0.00  0.00     0.013 C 
BRANCH  59  61
HETATM   61  C   UNK N   1      36.700  10.392   2.747  0.00  0.00     0.033 C 
BRANCH  61  62
HETATM   62  C   UNK N   1      36.886  11.310   3.896  0.00  0.00    -0.031 C 
HETATM   63  C   UNK N   1      37.284  10.847   5.072  0.00  0.00    -0.035 C 
HETATM   64  C   UNK N   1      37.444  11.793   6.209  0.00  0.00     0.036 C 
ENDBRANCH  61  62
ENDBRANCH  59  61
ENDBRANCH  58  59
BRANCH  58  65
HETATM   65  O   UNK N   1      35.103  10.575  -0.338  0.00  0.00    -0.393 OA
HETATM   66  H   UNK N   1      35.781  10.329  -0.985  0.00  0.00     0.210 HD
ENDBRANCH  58  65
ENDBRANCH  41  58
BRANCH  37  67
HETATM   67  C   UNK N   1      33.478   8.003   2.002  0.00  0.00     0.009 C 
HETATM   68  C   UNK N   1      33.888   7.730   0.568  0.00  0.00     0.012 C 
HETATM   69  C   UNK N   1      33.244   6.734   2.787  0.00  0.00     0.012 C 
ENDBRANCH  37  67
BRANCH   1  70
HETATM   70  C   UNK N   1      35.124  14.649   4.740  0.00  0.00     0.030 C 
HETATM   71  C   UNK N   1      35.288  14.882   6.233  0.00  0.00     0.007 C 
ENDBRANCH   1  70
BRANCH  33  72
HETATM   72  C   UNK N   1      29.331   6.095   0.953  0.00  0.00     0.039 C 
BRANCH  72  73
HETATM   73  C   UNK N   1      29.893   5.044   0.017  0.00  0.00    -0.020 C 
HETATM   74  C   UNK N   1      29.197   3.712   0.204  0.00  0.00     0.009 C 
HETATM   75  C   UNK N   1      29.639   5.512  -1.399  0.00  0.00     0.009 C 
ENDBRANCH  72  73
ENDBRANCH  33  72
BRANCH   5  76
HETATM   76  S   UNK N   1      32.607  17.563   6.214  0.00  0.00    -0.132 SA
BRANCH  76  77
HETATM   77  C   UNK N   1      31.997  17.447   7.937  0.00  0.00     0.106 C 
BRANCH  77  78
HETATM   78  C   UNK N   1      30.493  17.203   8.058  0.00  0.00     0.281 C 
BRANCH  78  79
HETATM   79  N   UNK N   1      29.985  17.611   9.360  0.00  0.00     0.080 N 
HETATM   80  C   UNK N   1      28.575  17.261   9.399  0.00  0.00     0.309 C 
HETATM   81  C   UNK N   1      30.062  19.057   9.446  0.00  0.00     0.309 C 
ENDBRANCH  78  79
ENDBRANCH  77  78
ENDBRANCH  76  77
ENDBRANCH   5  76
BRANCH  29  82
HETATM   82  C   UNK N   1      25.282   7.394   0.623  0.00  0.00     0.039 C 
BRANCH  82  83
HETATM   83  C   UNK N   1      26.012   6.044   0.446  0.00  0.00    -0.020 C 
HETATM   84  C   UNK N   1      26.067   5.633  -1.009  0.00  0.00     0.009 C 
HETATM   85  C   UNK N   1      25.468   4.927   1.306  0.00  0.00     0.009 C 
ENDBRANCH  82  83
ENDBRANCH  29  82
BRANCH   9  86
HETATM   86  C   UNK N   1      27.622  17.961   5.603  0.00  0.00     0.072 C 
BRANCH  86  87
HETATM   87  C   UNK N   1      27.111  19.401   5.764  0.00  0.00     0.053 C 
HETATM   88  C   UNK N   1      27.379  20.273   4.555  0.00  0.00     0.045 C 
HETATM   89  C   UNK N   1      27.885  20.023   6.905  0.00  0.00     0.045 C 
BRANCH  87  90
HETATM   90  O   UNK N   1      25.749  19.423   6.059  0.00  0.00    -0.391 OA
HETATM   91  H   UNK N   1      24.817  19.655   5.923  0.00  0.00     0.210 HD
ENDBRANCH  87  90
ENDBRANCH  86  87
ENDBRANCH   9  86
BRANCH  13  92
HETATM   92  C   UNK N   1      23.528  18.203   4.145  0.00  0.00     0.009 C 
HETATM   93  C   UNK N   1      24.056  19.429   3.430  0.00  0.00     0.012 C 
HETATM   94  C   UNK N   1      22.016  18.144   4.023  0.00  0.00     0.012 C 
ENDBRANCH  13  92
BRANCH  17  95
HETATM   95  C   UNK N   1      21.982  13.635   5.374  0.00  0.00     0.039 C 
BRANCH  95  96
HETATM   96  C   UNK N   1      21.401  12.559   6.306  0.00  0.00    -0.020 C 
HETATM   97  C   UNK N   1      21.065  13.078   7.685  0.00  0.00     0.009 C 
HETATM   98  C   UNK N   1      20.168  11.939   5.688  0.00  0.00     0.009 C 
ENDBRANCH  95  96
ENDBRANCH  17  95
TORSDOF 21
ENDMDL
MODEL 6
REMARK VINA RESULT:      -5.5      2.845     10.956
REMARK  21 active torsions:
REMARK  status: ('A' for Active; 'I' for Inactive)
REMARK    1  A    between atoms: C_3  and  C_2 
REMARK    2  A    between atoms: C_7  and  S_86 
REMARK    3  A    between atoms: C_11  and  C_80 
REMARK    4  A    between atoms: C_15  and  C_77 
REMARK    5  A    between atoms: C_19  and  C_72 
REMARK    6  A    between atoms: C_31  and  C_65 
REMARK    7  A    between atoms: C_35  and  C_60 
REMARK    8  A    between atoms: C_39  and  C_56 
REMARK    9  A    between atoms: C_43  and  C_47 
REMARK   10  A    between atoms: C_47  and  C_48 
REMARK   11  A    between atoms: C_47  and  O_54 
REMARK   12  A    between atoms: C_48  and  C_50 
REMARK   13  A    between atoms: C_50  and  C_51 
REMARK   14  A    between atoms: C_60  and  C_61 
REMARK   15  A    between atoms: C_65  and  C_66 
REMARK   16  A    between atoms: C_72  and  C_73 
REMARK   17  A    between atoms: C_80  and  C_81 
REMARK   18  A    between atoms: C_81  and  O_84 
REMARK   19  A    between atoms: S_86  and  C_87 
REMARK   20  A    between atoms: C_87  and  C_88 
REMARK   21  A    between atoms: C_88  and  N_89 
ROOT
HETATM    1  C   UNK N   1      24.510  15.229   5.210  0.00  0.00     0.176 C 
HETATM    2  C   UNK N   1      24.030  14.452   4.034  0.00  0.00     0.243 C 
HETATM    3  O   UNK N   1      23.694  15.036   3.009  0.00  0.00    -0.271 OA
HETATM    4  N   UNK N   1      23.767  13.138   4.175  0.00  0.00    -0.333 N 
HETATM    5  C   UNK N   1      22.615  12.617   3.510  0.00  0.00     0.241 C 
HETATM    6  C   UNK N   1      22.598  12.092   2.115  0.00  0.00     0.253 C 
HETATM    7  O   UNK N   1      21.527  12.057   1.567  0.00  0.00    -0.270 OA
HETATM    8  N   UNK N   1      23.661  11.463   1.548  0.00  0.00    -0.340 N 
HETATM    9  C   UNK N   1      23.341  10.486   0.499  0.00  0.00     0.181 C 
HETATM   10  C   UNK N   1      24.481   9.596   0.155  0.00  0.00     0.241 C 
HETATM   11  O   UNK N   1      25.174   9.139   1.051  0.00  0.00    -0.271 OA
HETATM   12  N   UNK N   1      24.442   9.017  -1.064  0.00  0.00    -0.346 N 
HETATM   13  C   UNK N   1      25.006   7.734  -1.431  0.00  0.00     0.180 C 
HETATM   14  C   UNK N   1      25.750   6.988  -0.322  0.00  0.00     0.243 C 
HETATM   15  O   UNK N   1      25.211   6.041   0.238  0.00  0.00    -0.271 OA
HETATM   16  N   UNK N   1      27.053   7.300  -0.045  0.00  0.00    -0.341 N 
HETATM   17  C   UNK N   1      27.893   6.407   0.777  0.00  0.00     0.179 C 
HETATM   18  C   UNK N   1      29.345   6.797   0.670  0.00  0.00     0.241 C 
HETATM   19  O   UNK N   1      29.968   7.157   1.658  0.00  0.00    -0.271 OA
HETATM   20  N   UNK N   1      29.914   6.781  -0.565  0.00  0.00    -0.346 N 
HETATM   21  C   UNK N   1      31.212   7.273  -0.953  0.00  0.00     0.172 C 
HETATM   22  C   UNK N   1      32.288   6.805  -0.050  0.00  0.00     0.240 C 
HETATM   23  O   UNK N   1      32.409   5.617   0.218  0.00  0.00    -0.271 OA
HETATM   24  N   UNK N   1      33.089   7.729   0.512  0.00  0.00    -0.346 N 
HETATM   25  C   UNK N   1      34.029   7.369   1.528  0.00  0.00     0.172 C 
HETATM   26  C   UNK N   1      33.424   7.646   2.877  0.00  0.00     0.242 C 
HETATM   27  O   UNK N   1      33.355   6.695   3.640  0.00  0.00    -0.271 OA
HETATM   28  N   UNK N   1      32.804   8.831   3.221  0.00  0.00    -0.341 N 
HETATM   29  C   UNK N   1      32.819  10.071   2.405  0.00  0.00     0.179 C 
HETATM   30  C   UNK N   1      32.652  11.321   3.270  0.00  0.00     0.243 C 
HETATM   31  O   UNK N   1      32.767  11.199   4.480  0.00  0.00    -0.271 OA
HETATM   32  N   UNK N   1      32.607  12.578   2.712  0.00  0.00    -0.341 N 
HETATM   33  C   UNK N   1      33.025  13.753   3.470  0.00  0.00     0.179 C 
HETATM   34  C   UNK N   1      31.930  14.662   3.903  0.00  0.00     0.243 C 
HETATM   35  O   UNK N   1      31.952  15.805   3.473  0.00  0.00    -0.271 OA
HETATM   36  N   UNK N   1      30.987  14.284   4.819  0.00  0.00    -0.341 N 
HETATM   37  C   UNK N   1      30.162  15.263   5.459  0.00  0.00     0.182 C 
HETATM   38  C   UNK N   1      28.758  15.516   5.106  0.00  0.00     0.243 C 
HETATM   39  O   UNK N   1      27.983  15.542   6.049  0.00  0.00    -0.271 OA
HETATM   40  N   UNK N   1      28.418  16.074   3.891  0.00  0.00    -0.339 N 
HETATM   41  C   UNK N   1      27.495  17.198   3.886  0.00  0.00     0.207 C 
HETATM   42  C   UNK N   1      26.077  16.762   4.038  0.00  0.00     0.243 C 
HETATM   43  O   UNK N   1      25.243  17.144   3.234  0.00  0.00    -0.271 OA
HETATM   44  N   UNK N   1      25.767  15.874   5.003  0.00  0.00    -0.346 N 
HETATM   45  C   UNK N   1      29.259  15.923   2.734  0.00  0.00     0.153 C 
HETATM   46  C   UNK N   1      30.898  12.944   5.327  0.00  0.00     0.153 C 
HETATM   47  C   UNK N   1      32.443  12.742   1.286  0.00  0.00     0.153 C 
HETATM   48  C   UNK N   1      31.889   8.762   4.348  0.00  0.00     0.153 C 
HETATM   49  C   UNK N   1      35.454   7.773   1.207  0.00  0.00     0.042 C 
HETATM   50  C   UNK N   1      31.488   6.828  -2.373  0.00  0.00     0.042 C 
HETATM   51  C   UNK N   1      27.625   8.483  -0.663  0.00  0.00     0.153 C 
HETATM   52  C   UNK N   1      24.996  11.626   2.072  0.00  0.00     0.153 C 
HETATM   53  C   UNK N   1      24.255  12.412   5.328  0.00  0.00     0.154 C 
HETATM   54  H   UNK N   1      23.985   9.518  -1.777  0.00  0.00     0.163 HD
HETATM   55  H   UNK N   1      29.371   6.383  -1.283  0.00  0.00     0.163 HD
HETATM   56  H   UNK N   1      33.028   8.667   0.219  0.00  0.00     0.163 HD
HETATM   57  H   UNK N   1      26.486  15.645   5.636  0.00  0.00     0.163 HD
ENDROOT
BRANCH  41  58
HETATM   58  C   UNK N   1      28.105  18.191   4.905  0.00  0.00     0.154 C 
BRANCH  58  59
HETATM   59  C   UNK N   1      27.344  18.931   5.991  0.00  0.00     0.016 C 
HETATM   60  C   UNK N   1      26.751  20.178   5.352  0.00  0.00     0.013 C 
BRANCH  59  61
HETATM   61  C   UNK N   1      28.242  19.412   7.104  0.00  0.00     0.033 C 
BRANCH  61  62
HETATM   62  C   UNK N   1      28.290  18.335   8.122  0.00  0.00    -0.031 C 
HETATM   63  C   UNK N   1      29.162  18.386   9.117  0.00  0.00    -0.035 C 
HETATM   64  C   UNK N   1      29.195  17.280  10.112  0.00  0.00     0.036 C 
ENDBRANCH  61  62
ENDBRANCH  59  61
ENDBRANCH  58  59
BRANCH  58  65
HETATM   65  O   UNK N   1      28.972  19.052   4.226  0.00  0.00    -0.393 OA
HETATM   66  H   UNK N   1      29.591  19.000   3.483  0.00  0.00     0.210 HD
ENDBRANCH  58  65
ENDBRANCH  41  58
BRANCH  37  67
HETATM   67  C   UNK N   1      30.776  16.289   6.416  0.00  0.00     0.009 C 
HETATM   68  C   UNK N   1      31.543  17.407   5.737  0.00  0.00     0.012 C 
HETATM   69  C   UNK N   1      31.564  15.644   7.532  0.00  0.00     0.012 C 
ENDBRANCH  37  67
BRANCH   1  70
HETATM   70  C   UNK N   1      23.428  16.119   5.822  0.00  0.00     0.030 C 
HETATM   71  C   UNK N   1      22.546  15.406   6.834  0.00  0.00     0.007 C 
ENDBRANCH   1  70
BRANCH  33  72
HETATM   72  C   UNK N   1      34.035  13.458   4.597  0.00  0.00     0.039 C 
BRANCH  72  73
HETATM   73  C   UNK N   1      35.151  14.469   4.764  0.00  0.00    -0.020 C 
HETATM   74  C   UNK N   1      34.889  15.391   5.935  0.00  0.00     0.009 C 
HETATM   75  C   UNK N   1      36.423  13.700   5.047  0.00  0.00     0.009 C 
ENDBRANCH  72  73
ENDBRANCH  33  72
BRANCH   5  76
HETATM   76  S   UNK N   1      21.008  13.221   4.168  0.00  0.00    -0.132 SA
BRANCH  76  77
HETATM   77  C   UNK N   1      20.711  14.546   2.939  0.00  0.00     0.106 C 
BRANCH  77  78
HETATM   78  C   UNK N   1      20.242  15.870   3.542  0.00  0.00     0.281 C 
BRANCH  78  79
HETATM   79  N   UNK N   1      20.881  17.010   2.899  0.00  0.00     0.080 N 
HETATM   80  C   UNK N   1      20.917  18.086   3.874  0.00  0.00     0.309 C 
HETATM   81  C   UNK N   1      20.029  17.454   1.812  0.00  0.00     0.309 C 
ENDBRANCH  78  79
ENDBRANCH  77  78
ENDBRANCH  76  77
ENDBRANCH   5  76
BRANCH  29  82
HETATM   82  C   UNK N   1      34.194  10.312   1.722  0.00  0.00     0.039 C 
BRANCH  82  83
HETATM   83  C   UNK N   1      35.223  11.023   2.629  0.00  0.00    -0.020 C 
HETATM   84  C   UNK N   1      36.123  11.939   1.830  0.00  0.00     0.009 C 
HETATM   85  C   UNK N   1      36.033  10.090   3.500  0.00  0.00     0.009 C 
ENDBRANCH  82  83
ENDBRANCH  29  82
BRANCH   9  86
HETATM   86  C   UNK N   1      22.328   9.459   1.088  0.00  0.00     0.072 C 
BRANCH  86  87
HETATM   87  C   UNK N   1      21.165   8.948   0.224  0.00  0.00     0.053 C 
HETATM   88  C   UNK N   1      19.801   9.282   0.792  0.00  0.00     0.045 C 
HETATM   89  C   UNK N   1      21.251   7.438   0.211  0.00  0.00     0.045 C 
BRANCH  87  90
HETATM   90  O   UNK N   1      21.255   9.431  -1.081  0.00  0.00    -0.391 OA
HETATM   91  H   UNK N   1      21.327  10.107  -1.771  0.00  0.00     0.210 HD
ENDBRANCH  87  90
ENDBRANCH  86  87
ENDBRANCH   9  86
BRANCH  13  92
HETATM   92  C   UNK N   1      23.884   6.911  -2.079  0.00  0.00     0.009 C 
HETATM   93  C   UNK N   1      23.085   7.713  -3.084  0.00  0.00     0.012 C 
HETATM   94  C   UNK N   1      24.396   5.636  -2.726  0.00  0.00     0.012 C 
ENDBRANCH  13  92
BRANCH  17  95
HETATM   95  C   UNK N   1      27.755   4.924   0.337  0.00  0.00     0.039 C 
BRANCH  95  96
HETATM   96  C   UNK N   1      27.771   3.908   1.492  0.00  0.00    -0.020 C 
HETATM   97  C   UNK N   1      26.680   2.867   1.390  0.00  0.00     0.009 C 
HETATM   98  C   UNK N   1      29.116   3.222   1.568  0.00  0.00     0.009 C 
ENDBRANCH  95  96
ENDBRANCH  17  95
TORSDOF 21
ENDMDL
MODEL 7
REMARK VINA RESULT:      -5.3      4.181     10.273
REMARK  21 active torsions:
REMARK  status: ('A' for Active; 'I' for Inactive)
REMARK    1  A    between atoms: C_3  and  C_2 
REMARK    2  A    between atoms: C_7  and  S_86 
REMARK    3  A    between atoms: C_11  and  C_80 
REMARK    4  A    between atoms: C_15  and  C_77 
REMARK    5  A    between atoms: C_19  and  C_72 
REMARK    6  A    between atoms: C_31  and  C_65 
REMARK    7  A    between atoms: C_35  and  C_60 
REMARK    8  A    between atoms: C_39  and  C_56 
REMARK    9  A    between atoms: C_43  and  C_47 
REMARK   10  A    between atoms: C_47  and  C_48 
REMARK   11  A    between atoms: C_47  and  O_54 
REMARK   12  A    between atoms: C_48  and  C_50 
REMARK   13  A    between atoms: C_50  and  C_51 
REMARK   14  A    between atoms: C_60  and  C_61 
REMARK   15  A    between atoms: C_65  and  C_66 
REMARK   16  A    between atoms: C_72  and  C_73 
REMARK   17  A    between atoms: C_80  and  C_81 
REMARK   18  A    between atoms: C_81  and  O_84 
REMARK   19  A    between atoms: S_86  and  C_87 
REMARK   20  A    between atoms: C_87  and  C_88 
REMARK   21  A    between atoms: C_88  and  N_89 
ROOT
HETATM    1  C   UNK N   1      29.441  14.969   4.564  0.00  0.00     0.176 C 
HETATM    2  C   UNK N   1      29.047  13.869   3.641  0.00  0.00     0.243 C 
HETATM    3  O   UNK N   1      29.541  13.804   2.520  0.00  0.00    -0.271 OA
HETATM    4  N   UNK N   1      28.001  13.083   3.962  0.00  0.00    -0.333 N 
HETATM    5  C   UNK N   1      27.111  12.701   2.912  0.00  0.00     0.241 C 
HETATM    6  C   UNK N   1      27.276  11.498   2.047  0.00  0.00     0.253 C 
HETATM    7  O   UNK N   1      26.701  11.513   0.990  0.00  0.00    -0.270 OA
HETATM    8  N   UNK N   1      27.835  10.341   2.489  0.00  0.00    -0.340 N 
HETATM    9  C   UNK N   1      27.383   9.115   1.816  0.00  0.00     0.181 C 
HETATM   10  C   UNK N   1      27.756   7.873   2.543  0.00  0.00     0.241 C 
HETATM   11  O   UNK N   1      27.637   7.834   3.758  0.00  0.00    -0.271 OA
HETATM   12  N   UNK N   1      27.808   6.742   1.808  0.00  0.00    -0.346 N 
HETATM   13  C   UNK N   1      27.543   5.396   2.271  0.00  0.00     0.180 C 
HETATM   14  C   UNK N   1      27.205   5.253   3.757  0.00  0.00     0.243 C 
HETATM   15  O   UNK N   1      26.042   5.076   4.099  0.00  0.00    -0.271 OA
HETATM   16  N   UNK N   1      28.210   5.201   4.683  0.00  0.00    -0.341 N 
HETATM   17  C   UNK N   1      27.953   4.749   6.064  0.00  0.00     0.179 C 
HETATM   18  C   UNK N   1      29.248   4.475   6.784  0.00  0.00     0.241 C 
HETATM   19  O   UNK N   1      29.553   5.111   7.783  0.00  0.00    -0.271 OA
HETATM   20  N   UNK N   1      30.080   3.539   6.255  0.00  0.00    -0.346 N 
HETATM   21  C   UNK N   1      31.431   3.226   6.645  0.00  0.00     0.172 C 
HETATM   22  C   UNK N   1      31.571   3.052   8.108  0.00  0.00     0.240 C 
HETATM   23  O   UNK N   1      30.827   2.301   8.724  0.00  0.00    -0.271 OA
HETATM   24  N   UNK N   1      32.501   3.786   8.747  0.00  0.00    -0.346 N 
HETATM   25  C   UNK N   1      32.573   3.804  10.174  0.00  0.00     0.172 C 
HETATM   26  C   UNK N   1      31.836   5.011  10.688  0.00  0.00     0.242 C 
HETATM   27  O   UNK N   1      30.927   4.792  11.473  0.00  0.00    -0.271 OA
HETATM   28  N   UNK N   1      32.010   6.291  10.201  0.00  0.00    -0.341 N 
HETATM   29  C   UNK N   1      33.080   6.709   9.260  0.00  0.00     0.179 C 
HETATM   30  C   UNK N   1      33.424   8.191   9.414  0.00  0.00     0.243 C 
HETATM   31  O   UNK N   1      32.995   8.779  10.395  0.00  0.00    -0.271 OA
HETATM   32  N   UNK N   1      34.369   8.794   8.615  0.00  0.00    -0.341 N 
HETATM   33  C   UNK N   1      35.115   9.958   9.082  0.00  0.00     0.179 C 
HETATM   34  C   UNK N   1      34.754  11.252   8.442  0.00  0.00     0.243 C 
HETATM   35  O   UNK N   1      35.630  11.825   7.812  0.00  0.00    -0.271 OA
HETATM   36  N   UNK N   1      33.532  11.840   8.622  0.00  0.00    -0.341 N 
HETATM   37  C   UNK N   1      33.329  13.215   8.280  0.00  0.00     0.182 C 
HETATM   38  C   UNK N   1      32.630  13.669   7.071  0.00  0.00     0.243 C 
HETATM   39  O   UNK N   1      31.765  14.510   7.257  0.00  0.00    -0.271 OA
HETATM   40  N   UNK N   1      33.172  13.474   5.817  0.00  0.00    -0.339 N 
HETATM   41  C   UNK N   1      33.222  14.606   4.907  0.00  0.00     0.207 C 
HETATM   42  C   UNK N   1      31.905  14.861   4.254  0.00  0.00     0.243 C 
HETATM   43  O   UNK N   1      31.846  14.949   3.038  0.00  0.00    -0.271 OA
HETATM   44  N   UNK N   1      30.794  14.890   5.016  0.00  0.00    -0.346 N 
HETATM   45  C   UNK N   1      34.082  12.391   5.554  0.00  0.00     0.153 C 
HETATM   46  C   UNK N   1      32.460  11.192   9.324  0.00  0.00     0.153 C 
HETATM   47  C   UNK N   1      34.867   8.126   7.436  0.00  0.00     0.153 C 
HETATM   48  C   UNK N   1      30.923   7.220  10.461  0.00  0.00     0.153 C 
HETATM   49  C   UNK N   1      33.935   3.423  10.719  0.00  0.00     0.042 C 
HETATM   50  C   UNK N   1      31.858   1.966   5.923  0.00  0.00     0.042 C 
HETATM   51  C   UNK N   1      29.563   5.505   4.250  0.00  0.00     0.153 C 
HETATM   52  C   UNK N   1      28.682  10.315   3.657  0.00  0.00     0.153 C 
HETATM   53  C   UNK N   1      27.481  13.069   5.313  0.00  0.00     0.154 C 
HETATM   54  H   UNK N   1      28.054   6.842   0.860  0.00  0.00     0.163 HD
HETATM   55  H   UNK N   1      29.711   3.008   5.511  0.00  0.00     0.163 HD
HETATM   56  H   UNK N   1      33.143   4.319   8.223  0.00  0.00     0.163 HD
HETATM   57  H   UNK N   1      30.929  14.852   5.990  0.00  0.00     0.163 HD
ENDROOT
BRANCH  41  58
HETATM   58  C   UNK N   1      33.897  15.727   5.734  0.00  0.00     0.154 C 
BRANCH  58  59
HETATM   59  C   UNK N   1      33.296  17.086   6.047  0.00  0.00     0.016 C 
HETATM   60  C   UNK N   1      33.438  17.937   4.795  0.00  0.00     0.013 C 
BRANCH  59  61
HETATM   61  C   UNK N   1      34.043  17.812   7.139  0.00  0.00     0.033 C 
BRANCH  61  62
HETATM   62  C   UNK N   1      33.039  18.245   8.141  0.00  0.00    -0.031 C 
HETATM   63  C   UNK N   1      31.780  17.844   8.050  0.00  0.00    -0.035 C 
HETATM   64  C   UNK N   1      30.795  18.312   9.062  0.00  0.00     0.036 C 
ENDBRANCH  61  62
ENDBRANCH  59  61
ENDBRANCH  58  59
BRANCH  58  65
HETATM   65  O   UNK N   1      35.225  15.850   5.320  0.00  0.00    -0.393 OA
HETATM   66  H   UNK N   1      35.864  16.565   5.177  0.00  0.00     0.210 HD
ENDBRANCH  58  65
ENDBRANCH  41  58
BRANCH  37  67
HETATM   67  C   UNK N   1      34.050  14.322   9.057  0.00  0.00     0.009 C 
HETATM   68  C   UNK N   1      35.434  14.661   8.537  0.00  0.00     0.012 C 
HETATM   69  C   UNK N   1      34.036  14.087  10.549  0.00  0.00     0.012 C 
ENDBRANCH  37  67
BRANCH   1  70
HETATM   70  C   UNK N   1      29.014  16.351   4.068  0.00  0.00     0.030 C 
HETATM   71  C   UNK N   1      29.482  17.493   4.955  0.00  0.00     0.007 C 
ENDBRANCH   1  70
BRANCH  33  72
HETATM   72  C   UNK N   1      35.236  10.066  10.615  0.00  0.00     0.039 C 
BRANCH  72  73
HETATM   73  C   UNK N   1      36.632  10.306  11.152  0.00  0.00    -0.020 C 
HETATM   74  C   UNK N   1      36.921  11.785  11.293  0.00  0.00     0.009 C 
HETATM   75  C   UNK N   1      36.706   9.680  12.527  0.00  0.00     0.009 C 
ENDBRANCH  72  73
ENDBRANCH  33  72
BRANCH   5  76
HETATM   76  S   UNK N   1      26.124  14.080   2.202  0.00  0.00    -0.132 SA
BRANCH  76  77
HETATM   77  C   UNK N   1      24.545  13.734   3.063  0.00  0.00     0.106 C 
BRANCH  77  78
HETATM   78  C   UNK N   1      23.544  14.889   3.031  0.00  0.00     0.281 C 
BRANCH  78  79
HETATM   79  N   UNK N   1      22.917  15.093   4.329  0.00  0.00     0.080 N 
HETATM   80  C   UNK N   1      23.575  14.200   5.268  0.00  0.00     0.309 C 
HETATM   81  C   UNK N   1      21.534  14.663   4.239  0.00  0.00     0.309 C 
ENDBRANCH  78  79
ENDBRANCH  77  78
ENDBRANCH  76  77
ENDBRANCH   5  76
BRANCH  29  82
HETATM   82  C   UNK N   1      34.436   6.012   9.559  0.00  0.00     0.039 C 
BRANCH  82  83
HETATM   83  C   UNK N   1      35.266   6.714  10.657  0.00  0.00    -0.020 C 
HETATM   84  C   UNK N   1      36.750   6.599  10.383  0.00  0.00     0.009 C 
HETATM   85  C   UNK N   1      34.937   6.270  12.063  0.00  0.00     0.009 C 
ENDBRANCH  82  83
ENDBRANCH  29  82
BRANCH   9  86
HETATM   86  C   UNK N   1      25.829   9.059   1.905  0.00  0.00     0.072 C 
BRANCH  86  87
HETATM   87  C   UNK N   1      24.995   8.844   0.633  0.00  0.00     0.053 C 
HETATM   88  C   UNK N   1      24.085   7.636   0.707  0.00  0.00     0.045 C 
HETATM   89  C   UNK N   1      25.966   8.565  -0.493  0.00  0.00     0.045 C 
BRANCH  87  90
HETATM   90  O   UNK N   1      24.240   9.975   0.327  0.00  0.00    -0.391 OA
HETATM   91  H   UNK N   1      24.008  10.779  -0.162  0.00  0.00     0.210 HD
ENDBRANCH  87  90
ENDBRANCH  86  87
ENDBRANCH   9  86
BRANCH  13  92
HETATM   92  C   UNK N   1      26.481   4.793   1.340  0.00  0.00     0.009 C 
HETATM   93  C   UNK N   1      26.716   5.151  -0.113  0.00  0.00     0.012 C 
HETATM   94  C   UNK N   1      26.364   3.287   1.488  0.00  0.00     0.012 C 
ENDBRANCH  13  92
BRANCH  17  95
HETATM   95  C   UNK N   1      27.098   3.453   6.093  0.00  0.00     0.039 C 
BRANCH  95  96
HETATM   96  C   UNK N   1      26.129   3.350   7.283  0.00  0.00    -0.020 C 
HETATM   97  C   UNK N   1      25.641   4.692   7.778  0.00  0.00     0.009 C 
HETATM   98  C   UNK N   1      24.942   2.486   6.920  0.00  0.00     0.009 C 
ENDBRANCH  95  96
ENDBRANCH  17  95
TORSDOF 21
ENDMDL
MODEL 8
REMARK VINA RESULT:      -5.2      2.612      4.684
REMARK  21 active torsions:
REMARK  status: ('A' for Active; 'I' for Inactive)
REMARK    1  A    between atoms: C_3  and  C_2 
REMARK    2  A    between atoms: C_7  and  S_86 
REMARK    3  A    between atoms: C_11  and  C_80 
REMARK    4  A    between atoms: C_15  and  C_77 
REMARK    5  A    between atoms: C_19  and  C_72 
REMARK    6  A    between atoms: C_31  and  C_65 
REMARK    7  A    between atoms: C_35  and  C_60 
REMARK    8  A    between atoms: C_39  and  C_56 
REMARK    9  A    between atoms: C_43  and  C_47 
REMARK   10  A    between atoms: C_47  and  C_48 
REMARK   11  A    between atoms: C_47  and  O_54 
REMARK   12  A    between atoms: C_48  and  C_50 
REMARK   13  A    between atoms: C_50  and  C_51 
REMARK   14  A    between atoms: C_60  and  C_61 
REMARK   15  A    between atoms: C_65  and  C_66 
REMARK   16  A    between atoms: C_72  and  C_73 
REMARK   17  A    between atoms: C_80  and  C_81 
REMARK   18  A    between atoms: C_81  and  O_84 
REMARK   19  A    between atoms: S_86  and  C_87 
REMARK   20  A    between atoms: C_87  and  C_88 
REMARK   21  A    between atoms: C_88  and  N_89 
ROOT
HETATM    1  C   UNK N   1      32.030   9.328   2.363  0.00  0.00     0.176 C 
HETATM    2  C   UNK N   1      31.760  10.788   2.477  0.00  0.00     0.243 C 
HETATM    3  O   UNK N   1      32.213  11.561   1.639  0.00  0.00    -0.271 OA
HETATM    4  N   UNK N   1      31.205  11.269   3.606  0.00  0.00    -0.333 N 
HETATM    5  C   UNK N   1      31.697  12.513   4.109  0.00  0.00     0.241 C 
HETATM    6  C   UNK N   1      31.179  13.856   3.721  0.00  0.00     0.253 C 
HETATM    7  O   UNK N   1      31.915  14.790   3.906  0.00  0.00    -0.270 OA
HETATM    8  N   UNK N   1      29.879  14.083   3.399  0.00  0.00    -0.340 N 
HETATM    9  C   UNK N   1      29.384  15.442   3.656  0.00  0.00     0.181 C 
HETATM   10  C   UNK N   1      27.901  15.548   3.610  0.00  0.00     0.241 C 
HETATM   11  O   UNK N   1      27.224  14.676   4.131  0.00  0.00    -0.271 OA
HETATM   12  N   UNK N   1      27.396  16.776   3.367  0.00  0.00    -0.346 N 
HETATM   13  C   UNK N   1      26.130  17.298   3.837  0.00  0.00     0.180 C 
HETATM   14  C   UNK N   1      25.272  16.336   4.660  0.00  0.00     0.243 C 
HETATM   15  O   UNK N   1      25.218  16.462   5.878  0.00  0.00    -0.271 OA
HETATM   16  N   UNK N   1      24.476  15.421   4.028  0.00  0.00    -0.341 N 
HETATM   17  C   UNK N   1      23.410  14.704   4.756  0.00  0.00     0.179 C 
HETATM   18  C   UNK N   1      22.483  14.009   3.792  0.00  0.00     0.241 C 
HETATM   19  O   UNK N   1      22.362  12.793   3.811  0.00  0.00    -0.271 OA
HETATM   20  N   UNK N   1      21.833  14.776   2.877  0.00  0.00    -0.346 N 
HETATM   21  C   UNK N   1      21.044  14.341   1.752  0.00  0.00     0.172 C 
HETATM   22  C   UNK N   1      20.059  13.299   2.120  0.00  0.00     0.240 C 
HETATM   23  O   UNK N   1      19.297  13.462   3.063  0.00  0.00    -0.271 OA
HETATM   24  N   UNK N   1      20.067  12.147   1.424  0.00  0.00    -0.346 N 
HETATM   25  C   UNK N   1      19.272  11.033   1.835  0.00  0.00     0.172 C 
HETATM   26  C   UNK N   1      20.124  10.093   2.643  0.00  0.00     0.242 C 
HETATM   27  O   UNK N   1      19.730   9.846   3.772  0.00  0.00    -0.271 OA
HETATM   28  N   UNK N   1      21.373   9.649   2.254  0.00  0.00    -0.341 N 
HETATM   29  C   UNK N   1      21.973   9.856   0.912  0.00  0.00     0.179 C 
HETATM   30  C   UNK N   1      22.986   8.763   0.569  0.00  0.00     0.243 C 
HETATM   31  O   UNK N   1      23.012   7.766   1.274  0.00  0.00    -0.271 OA
HETATM   32  N   UNK N   1      23.684   8.779  -0.617  0.00  0.00    -0.341 N 
HETATM   33  C   UNK N   1      24.174   7.543  -1.218  0.00  0.00     0.179 C 
HETATM   34  C   UNK N   1      25.647   7.337  -1.155  0.00  0.00     0.243 C 
HETATM   35  O   UNK N   1      26.244   7.261  -2.218  0.00  0.00    -0.271 OA
HETATM   36  N   UNK N   1      26.306   7.141   0.027  0.00  0.00    -0.341 N 
HETATM   37  C   UNK N   1      27.640   6.621   0.037  0.00  0.00     0.182 C 
HETATM   38  C   UNK N   1      28.841   7.436   0.267  0.00  0.00     0.243 C 
HETATM   39  O   UNK N   1      29.614   6.995   1.103  0.00  0.00    -0.271 OA
HETATM   40  N   UNK N   1      29.251   8.377  -0.655  0.00  0.00    -0.339 N 
HETATM   41  C   UNK N   1      30.648   8.375  -1.061  0.00  0.00     0.207 C 
HETATM   42  C   UNK N   1      31.527   9.036  -0.054  0.00  0.00     0.243 C 
HETATM   43  O   UNK N   1      32.287   9.922  -0.410  0.00  0.00    -0.271 OA
HETATM   44  N   UNK N   1      31.393   8.706   1.246  0.00  0.00    -0.346 N 
HETATM   45  C   UNK N   1      28.318   9.010  -1.547  0.00  0.00     0.153 C 
HETATM   46  C   UNK N   1      25.657   7.255   1.302  0.00  0.00     0.153 C 
HETATM   47  C   UNK N   1      23.688   9.960  -1.449  0.00  0.00     0.153 C 
HETATM   48  C   UNK N   1      22.228   9.154   3.320  0.00  0.00     0.153 C 
HETATM   49  C   UNK N   1      18.341  10.520   0.755  0.00  0.00     0.042 C 
HETATM   50  C   UNK N   1      20.339  15.547   1.168  0.00  0.00     0.042 C 
HETATM   51  C   UNK N   1      24.635  15.240   2.596  0.00  0.00     0.153 C 
HETATM   52  C   UNK N   1      29.007  13.006   2.995  0.00  0.00     0.153 C 
HETATM   53  C   UNK N   1      30.568  10.376   4.549  0.00  0.00     0.154 C 
HETATM   54  H   UNK N   1      27.944  17.378   2.813  0.00  0.00     0.163 HD
HETATM   55  H   UNK N   1      21.911  15.750   3.000  0.00  0.00     0.163 HD
HETATM   56  H   UNK N   1      20.630  12.070   0.619  0.00  0.00     0.163 HD
HETATM   57  H   UNK N   1      30.789   7.956   1.448  0.00  0.00     0.163 HD
ENDROOT
BRANCH  41  58
HETATM   58  C   UNK N   1      30.919   6.908  -1.472  0.00  0.00     0.154 C 
BRANCH  58  59
HETATM   59  C   UNK N   1      32.101   6.064  -1.026  0.00  0.00     0.016 C 
HETATM   60  C   UNK N   1      33.273   6.423  -1.928  0.00  0.00     0.013 C 
BRANCH  59  61
HETATM   61  C   UNK N   1      31.861   4.586  -1.213  0.00  0.00     0.033 C 
BRANCH  61  62
HETATM   62  C   UNK N   1      31.312   4.069   0.064  0.00  0.00    -0.031 C 
HETATM   63  C   UNK N   1      30.764   2.864   0.123  0.00  0.00    -0.035 C 
HETATM   64  C   UNK N   1      30.207   2.383   1.416  0.00  0.00     0.036 C 
ENDBRANCH  61  62
ENDBRANCH  59  61
ENDBRANCH  58  59
BRANCH  58  65
HETATM   65  O   UNK N   1      30.703   6.781  -2.846  0.00  0.00    -0.393 OA
HETATM   66  H   UNK N   1      29.951   6.816  -3.456  0.00  0.00     0.210 HD
ENDBRANCH  58  65
ENDBRANCH  41  58
BRANCH  37  67
HETATM   67  C   UNK N   1      27.918   5.189  -0.433  0.00  0.00     0.009 C 
HETATM   68  C   UNK N   1      28.001   5.023  -1.938  0.00  0.00     0.012 C 
HETATM   69  C   UNK N   1      26.999   4.178   0.210  0.00  0.00     0.012 C 
ENDBRANCH  37  67
BRANCH   1  70
HETATM   70  C   UNK N   1      33.508   8.976   2.532  0.00  0.00     0.030 C 
HETATM   71  C   UNK N   1      33.912   8.696   3.971  0.00  0.00     0.007 C 
ENDBRANCH   1  70
BRANCH  33  72
HETATM   72  C   UNK N   1      23.380   6.283  -0.821  0.00  0.00     0.039 C 
BRANCH  72  73
HETATM   73  C   UNK N   1      23.012   5.350  -1.958  0.00  0.00    -0.020 C 
HETATM   74  C   UNK N   1      24.028   4.238  -2.108  0.00  0.00     0.009 C 
HETATM   75  C   UNK N   1      21.677   4.725  -1.620  0.00  0.00     0.009 C 
ENDBRANCH  72  73
ENDBRANCH  33  72
BRANCH   5  76
HETATM   76  S   UNK N   1      33.425  12.461   4.733  0.00  0.00    -0.132 SA
BRANCH  76  77
HETATM   77  C   UNK N   1      33.066  12.749   6.506  0.00  0.00     0.106 C 
BRANCH  77  78
HETATM   78  C   UNK N   1      33.538  14.104   7.032  0.00  0.00     0.281 C 
BRANCH  78  79
HETATM   79  N   UNK N   1      33.707  14.091   8.478  0.00  0.00     0.080 N 
HETATM   80  C   UNK N   1      33.467  12.730   8.925  0.00  0.00     0.309 C 
HETATM   81  C   UNK N   1      32.668  14.917   9.064  0.00  0.00     0.309 C 
ENDBRANCH  78  79
ENDBRANCH  77  78
ENDBRANCH  76  77
ENDBRANCH   5  76
BRANCH  29  82
HETATM   82  C   UNK N   1      20.928   9.722  -0.230  0.00  0.00     0.039 C 
BRANCH  82  83
HETATM   83  C   UNK N   1      20.689   8.265  -0.685  0.00  0.00    -0.020 C 
HETATM   84  C   UNK N   1      20.400   8.191  -2.169  0.00  0.00     0.009 C 
HETATM   85  C   UNK N   1      19.634   7.531   0.110  0.00  0.00     0.009 C 
ENDBRANCH  82  83
ENDBRANCH  29  82
BRANCH   9  86
HETATM   86  C   UNK N   1      29.660  15.782   5.151  0.00  0.00     0.072 C 
BRANCH  86  87
HETATM   87  C   UNK N   1      30.175  17.178   5.537  0.00  0.00     0.053 C 
HETATM   88  C   UNK N   1      31.513  17.151   6.246  0.00  0.00     0.045 C 
HETATM   89  C   UNK N   1      29.190  17.755   6.530  0.00  0.00     0.045 C 
BRANCH  87  90
HETATM   90  O   UNK N   1      30.257  18.012   4.423  0.00  0.00    -0.391 OA
HETATM   91  H   UNK N   1      30.349  18.225   3.482  0.00  0.00     0.210 HD
ENDBRANCH  87  90
ENDBRANCH  86  87
ENDBRANCH   9  86
BRANCH  13  92
HETATM   92  C   UNK N   1      26.420  18.626   4.552  0.00  0.00     0.009 C 
HETATM   93  C   UNK N   1      27.437  19.470   3.813  0.00  0.00     0.012 C 
HETATM   94  C   UNK N   1      25.163  19.437   4.807  0.00  0.00     0.012 C 
ENDBRANCH  13  92
BRANCH  17  95
HETATM   95  C   UNK N   1      22.566  15.669   5.632  0.00  0.00     0.039 C 
BRANCH  95  96
HETATM   96  C   UNK N   1      21.425  14.995   6.412  0.00  0.00    -0.020 C 
HETATM   97  C   UNK N   1      21.669  14.938   7.903  0.00  0.00     0.009 C 
HETATM   98  C   UNK N   1      20.116  15.703   6.144  0.00  0.00     0.009 C 
ENDBRANCH  95  96
ENDBRANCH  17  95
TORSDOF 21
ENDMDL
MODEL 9
REMARK VINA RESULT:      -5.1      1.907      3.279
REMARK  21 active torsions:
REMARK  status: ('A' for Active; 'I' for Inactive)
REMARK    1  A    between atoms: C_3  and  C_2 
REMARK    2  A    between atoms: C_7  and  S_86 
REMARK    3  A    between atoms: C_11  and  C_80 
REMARK    4  A    between atoms: C_15  and  C_77 
REMARK    5  A    between atoms: C_19  and  C_72 
REMARK    6  A    between atoms: C_31  and  C_65 
REMARK    7  A    between atoms: C_35  and  C_60 
REMARK    8  A    between atoms: C_39  and  C_56 
REMARK    9  A    between atoms: C_43  and  C_47 
REMARK   10  A    between atoms: C_47  and  C_48 
REMARK   11  A    between atoms: C_47  and  O_54 
REMARK   12  A    between atoms: C_48  and  C_50 
REMARK   13  A    between atoms: C_50  and  C_51 
REMARK   14  A    between atoms: C_60  and  C_61 
REMARK   15  A    between atoms: C_65  and  C_66 
REMARK   16  A    between atoms: C_72  and  C_73 
REMARK   17  A    between atoms: C_80  and  C_81 
REMARK   18  A    between atoms: C_81  and  O_84 
REMARK   19  A    between atoms: S_86  and  C_87 
REMARK   20  A    between atoms: C_87  and  C_88 
REMARK   21  A    between atoms: C_88  and  N_89 
ROOT
HETATM    1  C   UNK N   1      31.721  10.743   2.039  0.00  0.00     0.176 C 
HETATM    2  C   UNK N   1      30.943  12.008   2.145  0.00  0.00     0.243 C 
HETATM    3  O   UNK N   1      30.876  12.769   1.185  0.00  0.00    -0.271 OA
HETATM    4  N   UNK N   1      30.499  12.409   3.353  0.00  0.00    -0.333 N 
HETATM    5  C   UNK N   1      30.571  13.803   3.657  0.00  0.00     0.241 C 
HETATM    6  C   UNK N   1      29.509  14.801   3.346  0.00  0.00     0.253 C 
HETATM    7  O   UNK N   1      29.852  15.953   3.298  0.00  0.00    -0.270 OA
HETATM    8  N   UNK N   1      28.185  14.496   3.347  0.00  0.00    -0.340 N 
HETATM    9  C   UNK N   1      27.273  15.608   3.654  0.00  0.00     0.181 C 
HETATM   10  C   UNK N   1      25.890  15.164   3.973  0.00  0.00     0.241 C 
HETATM   11  O   UNK N   1      25.726  14.187   4.688  0.00  0.00    -0.271 OA
HETATM   12  N   UNK N   1      24.913  16.081   3.806  0.00  0.00    -0.346 N 
HETATM   13  C   UNK N   1      23.675  16.171   4.550  0.00  0.00     0.180 C 
HETATM   14  C   UNK N   1      23.447  15.087   5.606  0.00  0.00     0.243 C 
HETATM   15  O   UNK N   1      23.609  15.353   6.791  0.00  0.00    -0.271 OA
HETATM   16  N   UNK N   1      22.949  13.869   5.237  0.00  0.00    -0.341 N 
HETATM   17  C   UNK N   1      22.420  12.924   6.240  0.00  0.00     0.179 C 
HETATM   18  C   UNK N   1      21.648  11.815   5.572  0.00  0.00     0.241 C 
HETATM   19  O   UNK N   1      22.010  10.652   5.678  0.00  0.00    -0.271 OA
HETATM   20  N   UNK N   1      20.575  12.161   4.812  0.00  0.00    -0.346 N 
HETATM   21  C   UNK N   1      19.794  11.320   3.940  0.00  0.00     0.172 C 
HETATM   22  C   UNK N   1      19.387  10.055   4.591  0.00  0.00     0.240 C 
HETATM   23  O   UNK N   1      18.839  10.061   5.685  0.00  0.00    -0.271 OA
HETATM   24  N   UNK N   1      19.688   8.899   3.971  0.00  0.00    -0.346 N 
HETATM   25  C   UNK N   1      19.488   7.641   4.620  0.00  0.00     0.172 C 
HETATM   26  C   UNK N   1      20.785   7.193   5.235  0.00  0.00     0.242 C 
HETATM   27  O   UNK N   1      20.766   6.980   6.438  0.00  0.00    -0.271 OA
HETATM   28  N   UNK N   1      21.996   7.181   4.570  0.00  0.00    -0.341 N 
HETATM   29  C   UNK N   1      22.171   7.402   3.112  0.00  0.00     0.179 C 
HETATM   30  C   UNK N   1      23.428   6.712   2.580  0.00  0.00     0.243 C 
HETATM   31  O   UNK N   1      23.983   5.899   3.304  0.00  0.00    -0.271 OA
HETATM   32  N   UNK N   1      23.798   6.814   1.259  0.00  0.00    -0.341 N 
HETATM   33  C   UNK N   1      24.585   5.767   0.615  0.00  0.00     0.179 C 
HETATM   34  C   UNK N   1      26.000   6.117   0.319  0.00  0.00     0.243 C 
HETATM   35  O   UNK N   1      26.341   6.115  -0.854  0.00  0.00    -0.271 OA
HETATM   36  N   UNK N   1      26.919   6.338   1.308  0.00  0.00    -0.341 N 
HETATM   37  C   UNK N   1      28.320   6.341   1.011  0.00  0.00     0.182 C 
HETATM   38  C   UNK N   1      29.135   7.558   0.896  0.00  0.00     0.243 C 
HETATM   39  O   UNK N   1      30.176   7.546   1.533  0.00  0.00    -0.271 OA
HETATM   40  N   UNK N   1      28.948   8.446  -0.143  0.00  0.00    -0.339 N 
HETATM   41  C   UNK N   1      30.118   8.892  -0.884  0.00  0.00     0.207 C 
HETATM   42  C   UNK N   1      30.868   9.958  -0.160  0.00  0.00     0.243 C 
HETATM   43  O   UNK N   1      31.136  10.999  -0.737  0.00  0.00    -0.271 OA
HETATM   44  N   UNK N   1      31.150   9.786   1.146  0.00  0.00    -0.346 N 
HETATM   45  C   UNK N   1      27.677   8.569  -0.805  0.00  0.00     0.153 C 
HETATM   46  C   UNK N   1      26.562   6.385   2.698  0.00  0.00     0.153 C 
HETATM   47  C   UNK N   1      23.172   7.789   0.396  0.00  0.00     0.153 C 
HETATM   48  C   UNK N   1      23.181   7.180   5.411  0.00  0.00     0.153 C 
HETATM   49  C   UNK N   1      18.619   6.682   3.832  0.00  0.00     0.042 C 
HETATM   50  C   UNK N   1      18.575  12.097   3.492  0.00  0.00     0.042 C 
HETATM   51  C   UNK N   1      22.857  13.562   3.820  0.00  0.00     0.153 C 
HETATM   52  C   UNK N   1      27.728  13.133   3.226  0.00  0.00     0.153 C 
HETATM   53  C   UNK N   1      30.469  11.485   4.467  0.00  0.00     0.154 C 
HETATM   54  H   UNK N   1      25.057  16.757   3.104  0.00  0.00     0.163 HD
HETATM   55  H   UNK N   1      20.298  13.105   4.864  0.00  0.00     0.163 HD
HETATM   56  H   UNK N   1      20.052   8.919   3.057  0.00  0.00     0.163 HD
HETATM   57  H   UNK N   1      30.938   8.903   1.528  0.00  0.00     0.163 HD
ENDROOT
BRANCH  41  58
HETATM   58  C   UNK N   1      30.837   7.579  -1.278  0.00  0.00     0.154 C 
BRANCH  58  59
HETATM   59  C   UNK N   1      32.287   7.237  -0.983  0.00  0.00     0.016 C 
HETATM   60  C   UNK N   1      33.134   7.921  -2.045  0.00  0.00     0.013 C 
BRANCH  59  61
HETATM   61  C   UNK N   1      32.570   5.759  -1.104  0.00  0.00     0.033 C 
BRANCH  61  62
HETATM   62  C   UNK N   1      33.232   5.338   0.153  0.00  0.00    -0.031 C 
HETATM   63  C   UNK N   1      33.208   6.118   1.223  0.00  0.00    -0.035 C 
HETATM   64  C   UNK N   1      33.898   5.672   2.464  0.00  0.00     0.036 C 
ENDBRANCH  61  62
ENDBRANCH  59  61
ENDBRANCH  58  59
BRANCH  58  65
HETATM   65  O   UNK N   1      30.509   7.269  -2.601  0.00  0.00    -0.393 OA
HETATM   66  H   UNK N   1      30.921   7.347  -3.475  0.00  0.00     0.210 HD
ENDBRANCH  58  65
ENDBRANCH  41  58
BRANCH  37  67
HETATM   67  C   UNK N   1      29.019   5.056   0.555  0.00  0.00     0.009 C 
HETATM   68  C   UNK N   1      28.861   4.738  -0.919  0.00  0.00     0.012 C 
HETATM   69  C   UNK N   1      28.694   3.874   1.438  0.00  0.00     0.012 C 
ENDBRANCH  37  67
BRANCH   1  70
HETATM   70  C   UNK N   1      33.221  10.975   1.851  0.00  0.00     0.030 C 
HETATM   71  C   UNK N   1      34.021   9.696   1.665  0.00  0.00     0.007 C 
ENDBRANCH   1  70
BRANCH  33  72
HETATM   72  C   UNK N   1      24.438   4.373   1.257  0.00  0.00     0.039 C 
BRANCH  72  73
HETATM   73  C   UNK N   1      24.173   3.231   0.298  0.00  0.00    -0.020 C 
HETATM   74  C   UNK N   1      23.683   3.738  -1.041  0.00  0.00     0.009 C 
HETATM   75  C   UNK N   1      25.485   2.510   0.075  0.00  0.00     0.009 C 
ENDBRANCH  72  73
ENDBRANCH  33  72
BRANCH   5  76
HETATM   76  S   UNK N   1      32.277  14.464   3.834  0.00  0.00    -0.132 SA
BRANCH  76  77
HETATM   77  C   UNK N   1      32.209  14.876   5.617  0.00  0.00     0.106 C 
BRANCH  77  78
HETATM   78  C   UNK N   1      32.901  16.188   5.987  0.00  0.00     0.281 C 
BRANCH  78  79
HETATM   79  N   UNK N   1      32.508  16.649   7.311  0.00  0.00     0.080 N 
HETATM   80  C   UNK N   1      33.220  17.889   7.562  0.00  0.00     0.309 C 
HETATM   81  C   UNK N   1      32.981  15.686   8.287  0.00  0.00     0.309 C 
ENDBRANCH  78  79
ENDBRANCH  77  78
ENDBRANCH  76  77
ENDBRANCH   5  76
BRANCH  29  82
HETATM   82  C   UNK N   1      21.041   6.743   2.274  0.00  0.00     0.039 C 
BRANCH  82  83
HETATM   83  C   UNK N   1      21.274   5.243   1.987  0.00  0.00    -0.020 C 
HETATM   84  C   UNK N   1      20.677   4.836   0.657  0.00  0.00     0.009 C 
HETATM   85  C   UNK N   1      20.815   4.321   3.093  0.00  0.00     0.009 C 
ENDBRANCH  82  83
ENDBRANCH  29  82
BRANCH   9  86
HETATM   86  C   UNK N   1      27.708  16.228   5.015  0.00  0.00     0.072 C 
BRANCH  86  87
HETATM   87  C   UNK N   1      28.117  17.707   5.087  0.00  0.00     0.053 C 
HETATM   88  C   UNK N   1      29.425  17.935   5.817  0.00  0.00     0.045 C 
HETATM   89  C   UNK N   1      27.059  18.422   5.898  0.00  0.00     0.045 C 
BRANCH  87  90
HETATM   90  O   UNK N   1      28.191  18.273   3.815  0.00  0.00    -0.391 OA
HETATM   91  H   UNK N   1      28.252  18.993   3.169  0.00  0.00     0.210 HD
ENDBRANCH  87  90
ENDBRANCH  86  87
ENDBRANCH   9  86
BRANCH  13  92
HETATM   92  C   UNK N   1      23.579  17.599   5.106  0.00  0.00     0.009 C 
HETATM   93  C   UNK N   1      24.036  18.640   4.106  0.00  0.00     0.012 C 
HETATM   94  C   UNK N   1      22.185  17.938   5.603  0.00  0.00     0.012 C 
ENDBRANCH  13  92
BRANCH  17  95
HETATM   95  C   UNK N   1      21.477  13.631   7.251  0.00  0.00     0.039 C 
BRANCH  95  96
HETATM   96  C   UNK N   1      21.437  12.989   8.648  0.00  0.00    -0.020 C 
HETATM   97  C   UNK N   1      22.775  12.449   9.099  0.00  0.00     0.009 C 
HETATM   98  C   UNK N   1      20.927  13.982   9.668  0.00  0.00     0.009 C 
ENDBRANCH  95  96
ENDBRANCH  17  95
TORSDOF 21
ENDMDL
