REMARK  7 active torsions:
REMARK  status: ('A' for Active; 'I' for Inactive)
REMARK    1  A    between atoms: C_2  and  C_3 
REMARK    2  A    between atoms: N_13  and  C_14 
REMARK    3  A    between atoms: C_17  and  C_20 
REMARK    4  A    between atoms: C_20  and  C_21 
REMARK    5  A    between atoms: C_21  and  N_22 
REMARK       I    between atoms: N_22  and  C_23 
REMARK       I    between atoms: C_23  and  N_25 
REMARK    6  A    between atoms: N_25  and  S_26 
REMARK    7  A    between atoms: S_26  and  C_29 
ROOT
HETATM    1  C   UNK N   1       1.262  -2.219   0.406  0.00  0.00     0.041 A 
HETATM    2  C   UNK N   1       2.333  -3.119   0.299  0.00  0.00     0.030 A 
HETATM    3  C   UNK N   1       2.151  -4.484   0.442  0.00  0.00     0.009 A 
HETATM    4  C   UNK N   1       0.887  -4.988   0.711  0.00  0.00    -0.057 A 
HETATM    5  C   UNK N   1      -0.204  -4.113   0.845  0.00  0.00     0.009 A 
HETATM    6  C   UNK N   1      -0.017  -2.729   0.690  0.00  0.00     0.030 A 
ENDROOT
BRANCH   4   7
HETATM    7  C   UNK N   1       0.711  -6.463   0.798  0.00  0.00     0.058 C 
BRANCH   7   8
HETATM    8  C   UNK N   1       0.779  -7.100  -0.601  0.00  0.00     0.129 C 
BRANCH   8   9
HETATM    9  N   UNK N   1      -0.270  -6.571  -1.453  0.00  0.00    -0.342 N 
HETATM   10  C   UNK N   1      -1.572  -6.608  -1.075  0.00  0.00     0.329 C 
HETATM   11  O   UNK N   1      -2.416  -6.038  -1.747  0.00  0.00    -0.246 OA
HETATM   12  N   UNK N   1      -1.906  -7.212   0.090  0.00  0.00    -0.232 N 
HETATM   13  H   UNK N   1      -1.226  -7.775   0.524  0.00  0.00     0.183 HD
HETATM   14  H   UNK N   1      -0.033  -6.177  -2.324  0.00  0.00     0.164 HD
BRANCH  12  15
HETATM   15  S   UNK N   1      -3.457  -7.063   0.878  0.00  0.00     0.266 S 
HETATM   16  O   UNK N   1      -3.456  -5.638   1.452  0.00  0.00    -0.200 OA
HETATM   17  O   UNK N   1      -3.275  -7.875   2.168  0.00  0.00    -0.200 OA
BRANCH  15  18
HETATM   18  C   UNK N   1      -5.007  -7.472   0.101  0.00  0.00     0.080 A 
HETATM   19  C   UNK N   1      -5.440  -8.801   0.066  0.00  0.00     0.026 A 
HETATM   20  C   UNK N   1      -6.709  -9.107  -0.433  0.00  0.00     0.008 A 
HETATM   21  C   UNK N   1      -7.548  -8.084  -0.886  0.00  0.00    -0.062 A 
HETATM   22  C   UNK N   1      -7.111  -6.756  -0.855  0.00  0.00     0.008 A 
HETATM   23  C   UNK N   1      -8.908  -8.405  -1.387  0.00  0.00     0.048 C 
HETATM   24  C   UNK N   1      -5.843  -6.450  -0.357  0.00  0.00     0.026 A 
ENDBRANCH  15  18
ENDBRANCH  12  15
ENDBRANCH   8   9
ENDBRANCH   7   8
ENDBRANCH   4   7
BRANCH   1  25
HETATM   25  N   UNK N   1       1.507  -0.802   0.221  0.00  0.00    -0.299 N 
HETATM   26  C   UNK N   1       2.716  -0.236   0.022  0.00  0.00     0.071 A 
HETATM   27  C   UNK N   1       3.969  -0.842  -0.054  0.00  0.00     0.057 A 
HETATM   28  C   UNK N   1       2.572   1.105  -0.102  0.00  0.00     0.083 A 
HETATM   29  C   UNK N   1       5.078  -0.013  -0.267  0.00  0.00     0.007 A 
HETATM   30  N   UNK N   1       4.913   1.343  -0.392  0.00  0.00    -0.362 N 
HETATM   31  C   UNK N   1       6.434  -0.614  -0.353  0.00  0.00     0.068 C 
HETATM   32  C   UNK N   1       3.677   1.927  -0.314  0.00  0.00     0.035 A 
ATOM     33  HN  UNK N   1       5.732   1.931  -0.547  1.00  0.00     0.165 HD
HETATM   34  C   UNK N   1       3.536   3.401  -0.453  0.00  0.00     0.070 C 
HETATM   35  N   UNK N   1       1.273   1.440   0.013  0.00  0.00    -0.342 N 
HETATM   36  C   UNK N   1       0.637   0.254   0.207  0.00  0.00     0.088 A 
ATOM     37  HN  UNK N   1       0.859   2.372  -0.035  1.00  0.00     0.167 HD
BRANCH  36  38
HETATM   38  C   UNK N   1      -0.846   0.169   0.374  0.00  0.00     0.072 C 
HETATM   39  C   UNK N   1      -1.489  -0.385  -0.884  0.00  0.00     0.013 C 
ENDBRANCH  36  38
ENDBRANCH   1  25
TORSDOF 7
