MODEL 1
REMARK VINA RESULT:      -9.0      0.000      0.000
REMARK  6 active torsions:
REMARK  status: ('A' for Active; 'I' for Inactive)
REMARK    1  A    between atoms: C_17  and  C_15 
REMARK    2  A    between atoms: C_19  and  C_16 
REMARK    3  A    between atoms: N_36  and  C_23 
REMARK    4  A    between atoms: S_40  and  C_24 
REMARK    5  A    between atoms: O_39  and  C_25 
REMARK    6  A    between atoms: S_40  and  N_36 
ROOT
HETATM    1  C   UNK N   1      23.115  15.750   6.093  0.00  0.00     0.048 A 
HETATM    2  C   UNK N   1      21.793  16.889   4.450  0.00  0.00     0.102 A 
HETATM    3  C   UNK N   1      23.037  16.396   4.860  0.00  0.00    -0.008 A 
HETATM    4  C   UNK N   1      22.025  15.555   6.878  0.00  0.00     0.094 A 
HETATM    5  C   UNK N   1      20.778  16.015   6.438  0.00  0.00     0.169 A 
HETATM    6  N   UNK N   1      20.700  16.703   5.248  0.00  0.00    -0.344 N 
ATOM      7  HN  UNK N   1      19.800  17.083   4.955  1.00  0.00     0.167 HD
ENDROOT
BRANCH   3   8
HETATM    8  C   UNK N   1      24.218  16.263   3.984  0.00  0.00    -0.024 A 
HETATM    9  C   UNK N   1      24.276  15.515   2.799  0.00  0.00     0.014 A 
HETATM   10  C   UNK N   1      25.536  15.266   2.206  0.00  0.00     0.031 A 
HETATM   11  C   UNK N   1      26.719  15.723   2.831  0.00  0.00     0.043 A 
HETATM   12  C   UNK N   1      26.634  16.478   4.014  0.00  0.00     0.003 A 
HETATM   13  N   UNK N   1      27.940  15.410   2.326  0.00  0.00    -0.365 N 
HETATM   14  C   UNK N   1      25.398  16.733   4.532  0.00  0.00     0.027 A 
HETATM   15  C   UNK N   1      27.798  16.904   4.698  0.00  0.00    -0.011 A 
HETATM   16  C   UNK N   1      29.034  16.540   4.146  0.00  0.00     0.030 A 
HETATM   17  C   UNK N   1      29.085  15.800   2.955  0.00  0.00     0.089 A 
ATOM     18  HN  UNK N   1      28.002  14.874   1.461  1.00  0.00     0.165 HD
BRANCH  15  19
HETATM   19  C   UNK N   1      27.754  17.677   6.002  0.00  0.00    -0.007 A 
HETATM   20  C   UNK N   1      27.687  19.081   6.040  0.00  0.00     0.032 A 
HETATM   21  C   UNK N   1      27.627  19.754   7.255  0.00  0.00     0.108 A 
HETATM   22  N   UNK N   1      27.627  19.043   8.407  0.00  0.00    -0.312 N 
HETATM   23  N   UNK N   1      27.691  17.710   8.396  0.00  0.00    -0.311 N 
ATOM     24  HN  UNK N   1      27.577  19.535   9.300  1.00  0.00     0.186 HD
HETATM   25  C   UNK N   1      27.758  17.006   7.230  0.00  0.00     0.119 A 
ATOM     26  HN  UNK N   1      27.691  17.204   9.282  1.00  0.00     0.186 HD
ENDBRANCH  15  19
ENDBRANCH   3   8
BRANCH   4  27
HETATM   27  N   UNK N   1      22.187  14.783   8.046  0.00  0.00    -0.276 N 
HETATM   28  H   UNK N   1      22.328  15.237   8.909  0.00  0.00     0.179 HD
BRANCH  27  29
HETATM   29  S   UNK N   1      22.146  13.040   7.994  0.00  0.00     0.266 S 
HETATM   30  O   UNK N   1      20.731  12.705   7.498  0.00  0.00    -0.200 OA
HETATM   31  O   UNK N   1      23.074  12.631   6.838  0.00  0.00    -0.200 OA
BRANCH  29  32
HETATM   32  C   UNK N   1      22.558  12.477   9.617  0.00  0.00     0.118 A 
HETATM   33  C   UNK N   1      21.546  12.314  10.564  0.00  0.00     0.031 A 
HETATM   34  C   UNK N   1      21.875  12.052  11.893  0.00  0.00     0.044 A 
HETATM   35  C   UNK N   1      23.218  11.969  12.275  0.00  0.00     0.119 A 
HETATM   36  C   UNK N   1      24.231  12.122  11.324  0.00  0.00     0.086 A 
HETATM   37  F   UNK N   1      23.538  11.765  13.573  0.00  0.00    -0.206 F 
HETATM   38  C   UNK N   1      23.903  12.374   9.993  0.00  0.00     0.142 A 
HETATM   39  F   UNK N   1      24.891  12.576   9.085  0.00  0.00    -0.204 F 
ENDBRANCH  29  32
ENDBRANCH  27  29
ENDBRANCH   4  27
BRANCH   5  40
HETATM   40  O   UNK N   1      19.671  15.757   7.167  0.00  0.00    -0.339 OA
HETATM   41  C   UNK N   1      19.221  16.598   8.156  0.00  0.00     0.211 C 
ENDBRANCH   5  40
TORSDOF 6
ENDMDL
MODEL 2
REMARK VINA RESULT:      -8.9      4.816      6.443
REMARK  6 active torsions:
REMARK  status: ('A' for Active; 'I' for Inactive)
REMARK    1  A    between atoms: C_17  and  C_15 
REMARK    2  A    between atoms: C_19  and  C_16 
REMARK    3  A    between atoms: N_36  and  C_23 
REMARK    4  A    between atoms: S_40  and  C_24 
REMARK    5  A    between atoms: O_39  and  C_25 
REMARK    6  A    between atoms: S_40  and  N_36 
ROOT
HETATM    1  C   UNK N   1      24.498  15.987   3.376  0.00  0.00     0.048 A 
HETATM    2  C   UNK N   1      24.397  14.673   1.374  0.00  0.00     0.102 A 
HETATM    3  C   UNK N   1      25.151  15.430   2.278  0.00  0.00    -0.008 A 
HETATM    4  C   UNK N   1      23.176  15.785   3.611  0.00  0.00     0.094 A 
HETATM    5  C   UNK N   1      22.440  14.990   2.723  0.00  0.00     0.169 A 
HETATM    6  N   UNK N   1      23.064  14.481   1.606  0.00  0.00    -0.344 N 
ATOM      7  HN  UNK N   1      22.515  13.946   0.934  1.00  0.00     0.167 HD
ENDROOT
BRANCH   3   8
HETATM    8  C   UNK N   1      26.626  15.469   2.314  0.00  0.00    -0.024 A 
HETATM    9  C   UNK N   1      27.482  14.455   1.858  0.00  0.00     0.014 A 
HETATM   10  C   UNK N   1      28.854  14.515   2.194  0.00  0.00     0.031 A 
HETATM   11  C   UNK N   1      29.342  15.554   3.018  0.00  0.00     0.043 A 
HETATM   12  C   UNK N   1      28.466  16.564   3.455  0.00  0.00     0.003 A 
HETATM   13  N   UNK N   1      30.636  15.572   3.427  0.00  0.00    -0.365 N 
HETATM   14  C   UNK N   1      27.157  16.494   3.076  0.00  0.00     0.027 A 
HETATM   15  C   UNK N   1      28.904  17.588   4.328  0.00  0.00    -0.011 A 
HETATM   16  C   UNK N   1      30.245  17.552   4.735  0.00  0.00     0.030 A 
HETATM   17  C   UNK N   1      31.098  16.541   4.268  0.00  0.00     0.089 A 
ATOM     18  HN  UNK N   1      31.275  14.848   3.099  1.00  0.00     0.165 HD
BRANCH  15  19
HETATM   19  C   UNK N   1      27.983  18.668   4.864  0.00  0.00    -0.007 A 
HETATM   20  C   UNK N   1      27.483  19.699   4.050  0.00  0.00     0.032 A 
HETATM   21  C   UNK N   1      26.623  20.659   4.571  0.00  0.00     0.108 A 
HETATM   22  N   UNK N   1      26.266  20.590   5.876  0.00  0.00    -0.312 N 
HETATM   23  N   UNK N   1      26.730  19.621   6.668  0.00  0.00    -0.311 N 
ATOM     24  HN  UNK N   1      25.631  21.291   6.260  1.00  0.00     0.186 HD
HETATM   25  C   UNK N   1      27.579  18.661   6.203  0.00  0.00     0.119 A 
ATOM     26  HN  UNK N   1      26.443  19.598   7.646  1.00  0.00     0.186 HD
ENDBRANCH  15  19
ENDBRANCH   3   8
BRANCH   4  27
HETATM   27  N   UNK N   1      22.638  16.287   4.813  0.00  0.00    -0.276 N 
HETATM   28  H   UNK N   1      22.230  15.664   5.457  0.00  0.00     0.179 HD
BRANCH  27  29
HETATM   29  S   UNK N   1      22.679  17.991   5.182  0.00  0.00     0.266 S 
HETATM   30  O   UNK N   1      21.896  18.116   6.498  0.00  0.00    -0.200 OA
HETATM   31  O   UNK N   1      24.136  18.307   5.560  0.00  0.00    -0.200 OA
BRANCH  29  32
HETATM   32  C   UNK N   1      21.994  18.827   3.784  0.00  0.00     0.118 A 
HETATM   33  C   UNK N   1      22.712  19.861   3.183  0.00  0.00     0.031 A 
HETATM   34  C   UNK N   1      22.108  20.647   2.203  0.00  0.00     0.044 A 
HETATM   35  C   UNK N   1      20.778  20.409   1.839  0.00  0.00     0.119 A 
HETATM   36  C   UNK N   1      20.063  19.366   2.435  0.00  0.00     0.086 A 
HETATM   37  F   UNK N   1      20.176  21.204   0.926  0.00  0.00    -0.206 F 
HETATM   38  C   UNK N   1      20.669  18.572   3.407  0.00  0.00     0.142 A 
HETATM   39  F   UNK N   1      19.951  17.597   4.021  0.00  0.00    -0.204 F 
ENDBRANCH  29  32
ENDBRANCH  27  29
ENDBRANCH   4  27
BRANCH   5  40
HETATM   40  O   UNK N   1      21.146  14.710   2.986  0.00  0.00    -0.339 OA
HETATM   41  C   UNK N   1      20.145  14.894   2.063  0.00  0.00     0.211 C 
ENDBRANCH   5  40
TORSDOF 6
ENDMDL
MODEL 3
REMARK VINA RESULT:      -8.7      2.877      5.204
REMARK  6 active torsions:
REMARK  status: ('A' for Active; 'I' for Inactive)
REMARK    1  A    between atoms: C_17  and  C_15 
REMARK    2  A    between atoms: C_19  and  C_16 
REMARK    3  A    between atoms: N_36  and  C_23 
REMARK    4  A    between atoms: S_40  and  C_24 
REMARK    5  A    between atoms: O_39  and  C_25 
REMARK    6  A    between atoms: S_40  and  N_36 
ROOT
HETATM    1  C   UNK N   1      26.420  15.669   6.827  0.00  0.00     0.048 A 
HETATM    2  C   UNK N   1      27.053  17.373   5.265  0.00  0.00     0.102 A 
HETATM    3  C   UNK N   1      27.247  16.742   6.498  0.00  0.00    -0.008 A 
HETATM    4  C   UNK N   1      25.469  15.202   5.977  0.00  0.00     0.094 A 
HETATM    5  C   UNK N   1      25.312  15.814   4.728  0.00  0.00     0.169 A 
HETATM    6  N   UNK N   1      26.087  16.909   4.416  0.00  0.00    -0.344 N 
ATOM      7  HN  UNK N   1      25.936  17.385   3.528  1.00  0.00     0.167 HD
ENDROOT
BRANCH   3   8
HETATM    8  C   UNK N   1      28.425  16.941   7.367  0.00  0.00    -0.024 A 
HETATM    9  C   UNK N   1      28.397  17.442   8.677  0.00  0.00     0.014 A 
HETATM   10  C   UNK N   1      29.613  17.824   9.290  0.00  0.00     0.031 A 
HETATM   11  C   UNK N   1      30.828  17.746   8.572  0.00  0.00     0.043 A 
HETATM   12  C   UNK N   1      30.830  17.232   7.262  0.00  0.00     0.003 A 
HETATM   13  N   UNK N   1      31.989  18.198   9.112  0.00  0.00    -0.365 N 
HETATM   14  C   UNK N   1      29.643  16.835   6.721  0.00  0.00     0.027 A 
HETATM   15  C   UNK N   1      32.017  17.193   6.492  0.00  0.00    -0.011 A 
HETATM   16  C   UNK N   1      33.185  17.687   7.089  0.00  0.00     0.030 A 
HETATM   17  C   UNK N   1      33.153  18.178   8.402  0.00  0.00     0.089 A 
ATOM     18  HN  UNK N   1      31.990  18.559  10.066  1.00  0.00     0.165 HD
BRANCH  15  19
HETATM   19  C   UNK N   1      32.057  16.692   5.060  0.00  0.00    -0.007 A 
HETATM   20  C   UNK N   1      32.209  15.331   4.745  0.00  0.00     0.032 A 
HETATM   21  C   UNK N   1      32.219  14.908   3.421  0.00  0.00     0.108 A 
HETATM   22  N   UNK N   1      32.076  15.821   2.432  0.00  0.00    -0.312 N 
HETATM   23  N   UNK N   1      31.931  17.119   2.707  0.00  0.00    -0.311 N 
ATOM     24  HN  UNK N   1      32.077  15.513   1.459  1.00  0.00     0.186 HD
HETATM   25  C   UNK N   1      31.920  17.583   3.989  0.00  0.00     0.119 A 
ATOM     26  HN  UNK N   1      31.826  17.782   1.939  1.00  0.00     0.186 HD
ENDBRANCH  15  19
ENDBRANCH   3   8
BRANCH   4  27
HETATM   27  N   UNK N   1      24.770  14.037   6.352  0.00  0.00    -0.276 N 
HETATM   28  H   UNK N   1      25.194  13.157   6.222  0.00  0.00     0.179 HD
BRANCH  27  29
HETATM   29  S   UNK N   1      23.169  14.121   7.037  0.00  0.00     0.266 S 
HETATM   30  O   UNK N   1      22.773  15.600   6.904  0.00  0.00    -0.200 OA
HETATM   31  O   UNK N   1      22.249  13.378   6.053  0.00  0.00    -0.200 OA
BRANCH  29  32
HETATM   32  C   UNK N   1      23.291  13.491   8.683  0.00  0.00     0.118 A 
HETATM   33  C   UNK N   1      24.524  13.038   9.155  0.00  0.00     0.031 A 
HETATM   34  C   UNK N   1      24.596  12.371  10.377  0.00  0.00     0.044 A 
HETATM   35  C   UNK N   1      23.431  12.142  11.117  0.00  0.00     0.119 A 
HETATM   36  C   UNK N   1      22.199  12.605  10.648  0.00  0.00     0.086 A 
HETATM   37  F   UNK N   1      23.495  11.451  12.277  0.00  0.00    -0.206 F 
HETATM   38  C   UNK N   1      22.126  13.282   9.432  0.00  0.00     0.142 A 
HETATM   39  F   UNK N   1      20.918  13.679   8.956  0.00  0.00    -0.204 F 
ENDBRANCH  29  32
ENDBRANCH  27  29
ENDBRANCH   4  27
BRANCH   5  40
HETATM   40  O   UNK N   1      24.430  15.310   3.839  0.00  0.00    -0.339 OA
HETATM   41  C   UNK N   1      23.277  15.968   3.484  0.00  0.00     0.211 C 
ENDBRANCH   5  40
TORSDOF 6
ENDMDL
MODEL 4
REMARK VINA RESULT:      -8.7      4.548      7.680
REMARK  6 active torsions:
REMARK  status: ('A' for Active; 'I' for Inactive)
REMARK    1  A    between atoms: C_17  and  C_15 
REMARK    2  A    between atoms: C_19  and  C_16 
REMARK    3  A    between atoms: N_36  and  C_23 
REMARK    4  A    between atoms: S_40  and  C_24 
REMARK    5  A    between atoms: O_39  and  C_25 
REMARK    6  A    between atoms: S_40  and  N_36 
ROOT
HETATM    1  C   UNK N   1      21.503  16.164   6.063  0.00  0.00     0.048 A 
HETATM    2  C   UNK N   1      20.250  14.958   7.711  0.00  0.00     0.102 A 
HETATM    3  C   UNK N   1      21.087  14.943   6.590  0.00  0.00    -0.008 A 
HETATM    4  C   UNK N   1      21.156  17.351   6.624  0.00  0.00     0.094 A 
HETATM    5  C   UNK N   1      20.354  17.352   7.772  0.00  0.00     0.169 A 
HETATM    6  N   UNK N   1      19.892  16.154   8.267  0.00  0.00    -0.344 N 
ATOM      7  HN  UNK N   1      19.265  16.160   9.072  1.00  0.00     0.167 HD
ENDROOT
BRANCH   3   8
HETATM    8  C   UNK N   1      21.782  13.746   6.077  0.00  0.00    -0.024 A 
HETATM    9  C   UNK N   1      21.640  13.208   4.789  0.00  0.00     0.014 A 
HETATM   10  C   UNK N   1      22.160  11.920   4.524  0.00  0.00     0.031 A 
HETATM   11  C   UNK N   1      22.768  11.170   5.556  0.00  0.00     0.043 A 
HETATM   12  C   UNK N   1      22.906  11.735   6.837  0.00  0.00     0.003 A 
HETATM   13  N   UNK N   1      23.185   9.896   5.341  0.00  0.00    -0.365 N 
HETATM   14  C   UNK N   1      22.429  12.996   7.043  0.00  0.00     0.027 A 
HETATM   15  C   UNK N   1      23.456  10.993   7.910  0.00  0.00    -0.011 A 
HETATM   16  C   UNK N   1      23.856   9.677   7.640  0.00  0.00     0.030 A 
HETATM   17  C   UNK N   1      23.720   9.148   6.349  0.00  0.00     0.089 A 
ATOM     18  HN  UNK N   1      23.097   9.491   4.409  1.00  0.00     0.165 HD
BRANCH  15  19
HETATM   19  C   UNK N   1      23.579  11.545   9.318  0.00  0.00    -0.007 A 
HETATM   20  C   UNK N   1      22.524  11.478  10.245  0.00  0.00     0.032 A 
HETATM   21  C   UNK N   1      22.681  11.975  11.533  0.00  0.00     0.108 A 
HETATM   22  N   UNK N   1      23.866  12.522  11.893  0.00  0.00    -0.312 N 
HETATM   23  N   UNK N   1      24.882  12.597  11.030  0.00  0.00    -0.311 N 
ATOM     24  HN  UNK N   1      23.986  12.882  12.840  1.00  0.00     0.186 HD
HETATM   25  C   UNK N   1      24.774  12.129   9.754  0.00  0.00     0.119 A 
ATOM     26  HN  UNK N   1      25.761  13.016  11.332  1.00  0.00     0.186 HD
ENDBRANCH  15  19
ENDBRANCH   3   8
BRANCH   4  27
HETATM   27  N   UNK N   1      21.730  18.522   6.090  0.00  0.00    -0.276 N 
HETATM   28  H   UNK N   1      22.178  19.158   6.693  0.00  0.00     0.179 HD
BRANCH  27  29
HETATM   29  S   UNK N   1      21.659  18.869   4.382  0.00  0.00     0.266 S 
HETATM   30  O   UNK N   1      20.946  17.651   3.774  0.00  0.00    -0.200 OA
HETATM   31  O   UNK N   1      20.658  20.027   4.228  0.00  0.00    -0.200 OA
BRANCH  29  32
HETATM   32  C   UNK N   1      23.321  19.144   3.854  0.00  0.00     0.118 A 
HETATM   33  C   UNK N   1      24.344  18.342   4.361  0.00  0.00     0.031 A 
HETATM   34  C   UNK N   1      25.675  18.665   4.098  0.00  0.00     0.044 A 
HETATM   35  C   UNK N   1      25.980  19.802   3.342  0.00  0.00     0.119 A 
HETATM   36  C   UNK N   1      24.955  20.600   2.826  0.00  0.00     0.086 A 
HETATM   37  F   UNK N   1      27.271  20.144   3.130  0.00  0.00    -0.206 F 
HETATM   38  C   UNK N   1      23.624  20.272   3.079  0.00  0.00     0.142 A 
HETATM   39  F   UNK N   1      22.634  21.081   2.623  0.00  0.00    -0.204 F 
ENDBRANCH  29  32
ENDBRANCH  27  29
ENDBRANCH   4  27
BRANCH   5  40
HETATM   40  O   UNK N   1      20.069  18.518   8.390  0.00  0.00    -0.339 OA
HETATM   41  C   UNK N   1      19.358  18.579   9.565  0.00  0.00     0.211 C 
ENDBRANCH   5  40
TORSDOF 6
ENDMDL
MODEL 5
REMARK VINA RESULT:      -8.6      4.918      8.271
REMARK  6 active torsions:
REMARK  status: ('A' for Active; 'I' for Inactive)
REMARK    1  A    between atoms: C_17  and  C_15 
REMARK    2  A    between atoms: C_19  and  C_16 
REMARK    3  A    between atoms: N_36  and  C_23 
REMARK    4  A    between atoms: S_40  and  C_24 
REMARK    5  A    between atoms: O_39  and  C_25 
REMARK    6  A    between atoms: S_40  and  N_36 
ROOT
HETATM    1  C   UNK N   1      26.614  18.272   4.906  0.00  0.00     0.048 A 
HETATM    2  C   UNK N   1      26.201  20.405   5.917  0.00  0.00     0.102 A 
HETATM    3  C   UNK N   1      25.889  19.462   4.932  0.00  0.00    -0.008 A 
HETATM    4  C   UNK N   1      27.575  17.991   5.823  0.00  0.00     0.094 A 
HETATM    5  C   UNK N   1      27.850  18.924   6.830  0.00  0.00     0.169 A 
HETATM    6  N   UNK N   1      27.177  20.125   6.831  0.00  0.00    -0.344 N 
ATOM      7  HN  UNK N   1      27.415  20.825   7.533  1.00  0.00     0.167 HD
ENDROOT
BRANCH   3   8
HETATM    8  C   UNK N   1      24.681  19.502   4.083  0.00  0.00    -0.024 A 
HETATM    9  C   UNK N   1      24.293  20.573   3.264  0.00  0.00     0.014 A 
HETATM   10  C   UNK N   1      22.990  20.579   2.716  0.00  0.00     0.031 A 
HETATM   11  C   UNK N   1      22.079  19.546   3.032  0.00  0.00     0.043 A 
HETATM   12  C   UNK N   1      22.494  18.478   3.849  0.00  0.00     0.003 A 
HETATM   13  N   UNK N   1      20.795  19.587   2.592  0.00  0.00    -0.365 N 
HETATM   14  C   UNK N   1      23.773  18.487   4.324  0.00  0.00     0.027 A 
HETATM   15  C   UNK N   1      21.594  17.456   4.234  0.00  0.00    -0.011 A 
HETATM   16  C   UNK N   1      20.276  17.554   3.767  0.00  0.00     0.030 A 
HETATM   17  C   UNK N   1      19.897  18.622   2.941  0.00  0.00     0.089 A 
ATOM     18  HN  UNK N   1      20.497  20.353   1.989  1.00  0.00     0.165 HD
BRANCH  15  19
HETATM   19  C   UNK N   1      21.985  16.314   5.153  0.00  0.00    -0.007 A 
HETATM   20  C   UNK N   1      21.773  16.361   6.542  0.00  0.00     0.032 A 
HETATM   21  C   UNK N   1      22.124  15.286   7.349  0.00  0.00     0.108 A 
HETATM   22  N   UNK N   1      22.671  14.184   6.784  0.00  0.00    -0.312 N 
HETATM   23  N   UNK N   1      22.883  14.117   5.467  0.00  0.00    -0.311 N 
ATOM     24  HN  UNK N   1      22.925  13.391   7.373  1.00  0.00     0.186 HD
HETATM   25  C   UNK N   1      22.560  15.148   4.636  0.00  0.00     0.119 A 
ATOM     26  HN  UNK N   1      23.299  13.273   5.073  1.00  0.00     0.186 HD
ENDBRANCH  15  19
ENDBRANCH   3   8
BRANCH   4  27
HETATM   27  N   UNK N   1      28.163  16.710   5.785  0.00  0.00    -0.276 N 
HETATM   28  H   UNK N   1      27.885  16.032   6.443  0.00  0.00     0.179 HD
BRANCH  27  29
HETATM   29  S   UNK N   1      29.375  16.303   4.599  0.00  0.00     0.266 S 
HETATM   30  O   UNK N   1      29.090  14.834   4.250  0.00  0.00    -0.200 OA
HETATM   31  O   UNK N   1      29.003  17.088   3.329  0.00  0.00    -0.200 OA
BRANCH  29  32
HETATM   32  C   UNK N   1      30.941  16.639   5.343  0.00  0.00     0.118 A 
HETATM   33  C   UNK N   1      31.065  16.592   6.732  0.00  0.00     0.031 A 
HETATM   34  C   UNK N   1      32.241  17.034   7.339  0.00  0.00     0.044 A 
HETATM   35  C   UNK N   1      33.284  17.538   6.555  0.00  0.00     0.119 A 
HETATM   36  C   UNK N   1      33.163  17.574   5.163  0.00  0.00     0.086 A 
HETATM   37  F   UNK N   1      34.403  18.013   7.146  0.00  0.00    -0.206 F 
HETATM   38  C   UNK N   1      31.993  17.123   4.554  0.00  0.00     0.142 A 
HETATM   39  F   UNK N   1      31.860  17.212   3.206  0.00  0.00    -0.204 F 
ENDBRANCH  29  32
ENDBRANCH  27  29
ENDBRANCH   4  27
BRANCH   5  40
HETATM   40  O   UNK N   1      28.742  18.625   7.797  0.00  0.00    -0.339 OA
HETATM   41  C   UNK N   1      28.365  18.233   9.059  0.00  0.00     0.211 C 
ENDBRANCH   5  40
TORSDOF 6
ENDMDL
MODEL 6
REMARK VINA RESULT:      -8.6      5.262      7.657
REMARK  6 active torsions:
REMARK  status: ('A' for Active; 'I' for Inactive)
REMARK    1  A    between atoms: C_17  and  C_15 
REMARK    2  A    between atoms: C_19  and  C_16 
REMARK    3  A    between atoms: N_36  and  C_23 
REMARK    4  A    between atoms: S_40  and  C_24 
REMARK    5  A    between atoms: O_39  and  C_25 
REMARK    6  A    between atoms: S_40  and  N_36 
ROOT
HETATM    1  C   UNK N   1      28.963  16.129   2.927  0.00  0.00     0.048 A 
HETATM    2  C   UNK N   1      30.135  14.040   2.869  0.00  0.00     0.102 A 
HETATM    3  C   UNK N   1      30.148  15.418   3.108  0.00  0.00    -0.008 A 
HETATM    4  C   UNK N   1      27.803  15.522   2.567  0.00  0.00     0.094 A 
HETATM    5  C   UNK N   1      27.792  14.136   2.372  0.00  0.00     0.169 A 
HETATM    6  N   UNK N   1      28.969  13.433   2.495  0.00  0.00    -0.344 N 
ATOM      7  HN  UNK N   1      28.970  12.432   2.302  1.00  0.00     0.167 HD
ENDROOT
BRANCH   3   8
HETATM    8  C   UNK N   1      31.239  16.142   3.792  0.00  0.00    -0.024 A 
HETATM    9  C   UNK N   1      32.581  16.168   3.387  0.00  0.00     0.014 A 
HETATM   10  C   UNK N   1      33.555  16.679   4.276  0.00  0.00     0.031 A 
HETATM   11  C   UNK N   1      33.183  17.110   5.569  0.00  0.00     0.043 A 
HETATM   12  C   UNK N   1      31.829  17.082   5.949  0.00  0.00     0.003 A 
HETATM   13  N   UNK N   1      34.118  17.514   6.467  0.00  0.00    -0.365 N 
HETATM   14  C   UNK N   1      30.914  16.621   5.048  0.00  0.00     0.027 A 
HETATM   15  C   UNK N   1      31.425  17.451   7.254  0.00  0.00    -0.011 A 
HETATM   16  C   UNK N   1      32.431  17.843   8.148  0.00  0.00     0.030 A 
HETATM   17  C   UNK N   1      33.770  17.876   7.735  0.00  0.00     0.089 A 
ATOM     18  HN  UNK N   1      35.099  17.546   6.188  1.00  0.00     0.165 HD
BRANCH  15  19
HETATM   19  C   UNK N   1      29.983  17.389   7.722  0.00  0.00    -0.007 A 
HETATM   20  C   UNK N   1      29.577  17.893   8.970  0.00  0.00     0.032 A 
HETATM   21  C   UNK N   1      28.242  17.839   9.355  0.00  0.00     0.108 A 
HETATM   22  N   UNK N   1      27.331  17.297   8.512  0.00  0.00    -0.312 N 
HETATM   23  N   UNK N   1      27.694  16.811   7.323  0.00  0.00    -0.311 N 
ATOM     24  HN  UNK N   1      26.350  17.261   8.790  1.00  0.00     0.186 HD
HETATM   25  C   UNK N   1      28.991  16.838   6.904  0.00  0.00     0.119 A 
ATOM     26  HN  UNK N   1      26.983  16.409   6.712  1.00  0.00     0.186 HD
ENDBRANCH  15  19
ENDBRANCH   3   8
BRANCH   4  27
HETATM   27  N   UNK N   1      26.635  16.310   2.531  0.00  0.00    -0.276 N 
HETATM   28  H   UNK N   1      26.295  16.630   1.663  0.00  0.00     0.179 HD
BRANCH  27  29
HETATM   29  S   UNK N   1      25.779  16.731   3.991  0.00  0.00     0.266 S 
HETATM   30  O   UNK N   1      24.297  16.533   3.636  0.00  0.00    -0.200 OA
HETATM   31  O   UNK N   1      26.094  15.615   5.001  0.00  0.00    -0.200 OA
BRANCH  29  32
HETATM   32  C   UNK N   1      26.269  18.377   4.406  0.00  0.00     0.118 A 
HETATM   33  C   UNK N   1      27.600  18.760   4.234  0.00  0.00     0.031 A 
HETATM   34  C   UNK N   1      28.037  19.988   4.728  0.00  0.00     0.044 A 
HETATM   35  C   UNK N   1      27.146  20.823   5.410  0.00  0.00     0.119 A 
HETATM   36  C   UNK N   1      25.811  20.443   5.572  0.00  0.00     0.086 A 
HETATM   37  F   UNK N   1      27.582  21.991   5.933  0.00  0.00    -0.206 F 
HETATM   38  C   UNK N   1      25.369  19.220   5.069  0.00  0.00     0.142 A 
HETATM   39  F   UNK N   1      24.086  18.832   5.279  0.00  0.00    -0.204 F 
ENDBRANCH  29  32
ENDBRANCH  27  29
ENDBRANCH   4  27
BRANCH   5  40
HETATM   40  O   UNK N   1      26.630  13.506   2.097  0.00  0.00    -0.339 OA
HETATM   41  C   UNK N   1      26.032  12.636   2.977  0.00  0.00     0.211 C 
ENDBRANCH   5  40
TORSDOF 6
ENDMDL
MODEL 7
REMARK VINA RESULT:      -8.3      5.632      8.172
REMARK  6 active torsions:
REMARK  status: ('A' for Active; 'I' for Inactive)
REMARK    1  A    between atoms: C_17  and  C_15 
REMARK    2  A    between atoms: C_19  and  C_16 
REMARK    3  A    between atoms: N_36  and  C_23 
REMARK    4  A    between atoms: S_40  and  C_24 
REMARK    5  A    between atoms: O_39  and  C_25 
REMARK    6  A    between atoms: S_40  and  N_36 
ROOT
HETATM    1  C   UNK N   1      26.984  17.004   3.952  0.00  0.00     0.048 A 
HETATM    2  C   UNK N   1      24.801  17.992   3.949  0.00  0.00     0.102 A 
HETATM    3  C   UNK N   1      25.650  16.955   3.551  0.00  0.00    -0.008 A 
HETATM    4  C   UNK N   1      27.465  17.998   4.741  0.00  0.00     0.094 A 
HETATM    5  C   UNK N   1      26.596  19.009   5.170  0.00  0.00     0.169 A 
HETATM    6  N   UNK N   1      25.291  18.998   4.734  0.00  0.00    -0.344 N 
ATOM      7  HN  UNK N   1      24.673  19.763   5.004  1.00  0.00     0.167 HD
ENDROOT
BRANCH   3   8
HETATM    8  C   UNK N   1      25.197  15.676   2.966  0.00  0.00    -0.024 A 
HETATM    9  C   UNK N   1      26.032  14.668   2.462  0.00  0.00     0.014 A 
HETATM   10  C   UNK N   1      25.460  13.623   1.699  0.00  0.00     0.031 A 
HETATM   11  C   UNK N   1      24.076  13.627   1.411  0.00  0.00     0.043 A 
HETATM   12  C   UNK N   1      23.259  14.644   1.936  0.00  0.00     0.003 A 
HETATM   13  N   UNK N   1      23.529  12.684   0.601  0.00  0.00    -0.365 N 
HETATM   14  C   UNK N   1      23.841  15.611   2.702  0.00  0.00     0.027 A 
HETATM   15  C   UNK N   1      21.880  14.713   1.621  0.00  0.00    -0.011 A 
HETATM   16  C   UNK N   1      21.368  13.726   0.768  0.00  0.00     0.030 A 
HETATM   17  C   UNK N   1      22.205  12.715   0.274  0.00  0.00     0.089 A 
ATOM     18  HN  UNK N   1      24.119  11.938   0.231  1.00  0.00     0.165 HD
BRANCH  15  19
HETATM   19  C   UNK N   1      20.972  15.819   2.124  0.00  0.00    -0.007 A 
HETATM   20  C   UNK N   1      20.751  16.044   3.494  0.00  0.00     0.032 A 
HETATM   21  C   UNK N   1      19.929  17.081   3.918  0.00  0.00     0.108 A 
HETATM   22  N   UNK N   1      19.344  17.882   2.996  0.00  0.00    -0.312 N 
HETATM   23  N   UNK N   1      19.538  17.687   1.690  0.00  0.00    -0.311 N 
ATOM     24  HN  UNK N   1      18.744  18.648   3.305  1.00  0.00     0.186 HD
HETATM   25  C   UNK N   1      20.331  16.679   1.226  0.00  0.00     0.119 A 
ATOM     26  HN  UNK N   1      19.081  18.307   1.021  1.00  0.00     0.186 HD
ENDBRANCH  15  19
ENDBRANCH   3   8
BRANCH   4  27
HETATM   27  N   UNK N   1      28.796  17.891   5.193  0.00  0.00    -0.276 N 
HETATM   28  H   UNK N   1      29.481  18.496   4.825  0.00  0.00     0.179 HD
BRANCH  27  29
HETATM   29  S   UNK N   1      29.256  16.706   6.387  0.00  0.00     0.266 S 
HETATM   30  O   UNK N   1      28.211  16.863   7.503  0.00  0.00    -0.200 OA
HETATM   31  O   UNK N   1      28.956  15.335   5.758  0.00  0.00    -0.200 OA
BRANCH  29  32
HETATM   32  C   UNK N   1      30.929  17.059   6.830  0.00  0.00     0.118 A 
HETATM   33  C   UNK N   1      31.216  17.517   8.117  0.00  0.00     0.031 A 
HETATM   34  C   UNK N   1      32.498  17.973   8.421  0.00  0.00     0.044 A 
HETATM   35  C   UNK N   1      33.486  17.987   7.431  0.00  0.00     0.119 A 
HETATM   36  C   UNK N   1      33.201  17.518   6.145  0.00  0.00     0.086 A 
HETATM   37  F   UNK N   1      34.715  18.477   7.712  0.00  0.00    -0.206 F 
HETATM   38  C   UNK N   1      31.923  17.051   5.843  0.00  0.00     0.142 A 
HETATM   39  F   UNK N   1      31.636  16.650   4.578  0.00  0.00    -0.204 F 
ENDBRANCH  29  32
ENDBRANCH  27  29
ENDBRANCH   4  27
BRANCH   5  40
HETATM   40  O   UNK N   1      27.038  19.958   6.022  0.00  0.00    -0.339 OA
HETATM   41  C   UNK N   1      26.558  21.245   6.012  0.00  0.00     0.211 C 
ENDBRANCH   5  40
TORSDOF 6
ENDMDL
MODEL 8
REMARK VINA RESULT:      -8.3      4.303      7.498
REMARK  6 active torsions:
REMARK  status: ('A' for Active; 'I' for Inactive)
REMARK    1  A    between atoms: C_17  and  C_15 
REMARK    2  A    between atoms: C_19  and  C_16 
REMARK    3  A    between atoms: N_36  and  C_23 
REMARK    4  A    between atoms: S_40  and  C_24 
REMARK    5  A    between atoms: O_39  and  C_25 
REMARK    6  A    between atoms: S_40  and  N_36 
ROOT
HETATM    1  C   UNK N   1      26.975  18.036   5.214  0.00  0.00     0.048 A 
HETATM    2  C   UNK N   1      26.933  20.243   6.148  0.00  0.00     0.102 A 
HETATM    3  C   UNK N   1      26.505  19.348   5.161  0.00  0.00    -0.008 A 
HETATM    4  C   UNK N   1      27.793  17.600   6.206  0.00  0.00     0.094 A 
HETATM    5  C   UNK N   1      28.180  18.494   7.212  0.00  0.00     0.169 A 
HETATM    6  N   UNK N   1      27.766  19.805   7.138  0.00  0.00    -0.344 N 
ATOM      7  HN  UNK N   1      28.091  20.466   7.842  1.00  0.00     0.167 HD
ENDROOT
BRANCH   3   8
HETATM    8  C   UNK N   1      25.392  19.599   4.224  0.00  0.00    -0.024 A 
HETATM    9  C   UNK N   1      25.304  20.678   3.332  0.00  0.00     0.014 A 
HETATM   10  C   UNK N   1      24.072  20.936   2.688  0.00  0.00     0.031 A 
HETATM   11  C   UNK N   1      22.937  20.146   2.980  0.00  0.00     0.043 A 
HETATM   12  C   UNK N   1      23.053  19.064   3.871  0.00  0.00     0.003 A 
HETATM   13  N   UNK N   1      21.725  20.439   2.443  0.00  0.00    -0.365 N 
HETATM   14  C   UNK N   1      24.269  18.822   4.440  0.00  0.00     0.027 A 
HETATM   15  C   UNK N   1      21.926  18.286   4.232  0.00  0.00    -0.011 A 
HETATM   16  C   UNK N   1      20.695  18.641   3.664  0.00  0.00     0.030 A 
HETATM   17  C   UNK N   1      20.615  19.715   2.766  0.00  0.00     0.089 A 
ATOM     18  HN  UNK N   1      21.642  21.215   1.787  1.00  0.00     0.165 HD
BRANCH  15  19
HETATM   19  C   UNK N   1      21.996  17.143   5.226  0.00  0.00    -0.007 A 
HETATM   20  C   UNK N   1      22.729  15.971   4.972  0.00  0.00     0.032 A 
HETATM   21  C   UNK N   1      22.787  14.953   5.916  0.00  0.00     0.108 A 
HETATM   22  N   UNK N   1      22.132  15.101   7.092  0.00  0.00    -0.312 N 
HETATM   23  N   UNK N   1      21.429  16.205   7.355  0.00  0.00    -0.311 N 
ATOM     24  HN  UNK N   1      22.178  14.358   7.790  1.00  0.00     0.186 HD
HETATM   25  C   UNK N   1      21.338  17.227   6.458  0.00  0.00     0.119 A 
ATOM     26  HN  UNK N   1      20.945  16.285   8.250  1.00  0.00     0.186 HD
ENDBRANCH  15  19
ENDBRANCH   3   8
BRANCH   4  27
HETATM   27  N   UNK N   1      28.111  16.227   6.238  0.00  0.00    -0.276 N 
HETATM   28  H   UNK N   1      27.916  15.706   7.050  0.00  0.00     0.179 HD
BRANCH  27  29
HETATM   29  S   UNK N   1      28.844  15.434   4.869  0.00  0.00     0.266 S 
HETATM   30  O   UNK N   1      29.849  16.461   4.324  0.00  0.00    -0.200 OA
HETATM   31  O   UNK N   1      29.711  14.304   5.450  0.00  0.00    -0.200 OA
BRANCH  29  32
HETATM   32  C   UNK N   1      27.526  14.981   3.783  0.00  0.00     0.118 A 
HETATM   33  C   UNK N   1      27.375  15.655   2.570  0.00  0.00     0.031 A 
HETATM   34  C   UNK N   1      26.238  15.437   1.793  0.00  0.00     0.044 A 
HETATM   35  C   UNK N   1      25.245  14.559   2.240  0.00  0.00     0.119 A 
HETATM   36  C   UNK N   1      25.403  13.876   3.449  0.00  0.00     0.086 A 
HETATM   37  F   UNK N   1      24.119  14.386   1.511  0.00  0.00    -0.206 F 
HETATM   38  C   UNK N   1      26.544  14.085   4.222  0.00  0.00     0.142 A 
HETATM   39  F   UNK N   1      26.665  13.462   5.422  0.00  0.00    -0.204 F 
ENDBRANCH  29  32
ENDBRANCH  27  29
ENDBRANCH   4  27
BRANCH   5  40
HETATM   40  O   UNK N   1      28.924  18.056   8.249  0.00  0.00    -0.339 OA
HETATM   41  C   UNK N   1      28.370  17.647   9.439  0.00  0.00     0.211 C 
ENDBRANCH   5  40
TORSDOF 6
ENDMDL
MODEL 9
REMARK VINA RESULT:      -8.3     16.376     18.924
REMARK  6 active torsions:
REMARK  status: ('A' for Active; 'I' for Inactive)
REMARK    1  A    between atoms: C_17  and  C_15 
REMARK    2  A    between atoms: C_19  and  C_16 
REMARK    3  A    between atoms: N_36  and  C_23 
REMARK    4  A    between atoms: S_40  and  C_24 
REMARK    5  A    between atoms: O_39  and  C_25 
REMARK    6  A    between atoms: S_40  and  N_36 
ROOT
HETATM    1  C   UNK N   1      26.971  28.057  -6.041  0.00  0.00     0.048 A 
HETATM    2  C   UNK N   1      25.360  27.932  -4.271  0.00  0.00     0.102 A 
HETATM    3  C   UNK N   1      25.939  27.363  -5.411  0.00  0.00    -0.008 A 
HETATM    4  C   UNK N   1      27.449  29.234  -5.563  0.00  0.00     0.094 A 
HETATM    5  C   UNK N   1      26.891  29.773  -4.397  0.00  0.00     0.169 A 
HETATM    6  N   UNK N   1      25.835  29.123  -3.798  0.00  0.00    -0.344 N 
ATOM      7  HN  UNK N   1      25.396  29.543  -2.980  1.00  0.00     0.167 HD
ENDROOT
BRANCH   3   8
HETATM    8  C   UNK N   1      25.734  25.969  -5.850  0.00  0.00    -0.024 A 
HETATM    9  C   UNK N   1      25.556  24.864  -5.004  0.00  0.00     0.014 A 
HETATM   10  C   UNK N   1      25.634  23.562  -5.552  0.00  0.00     0.031 A 
HETATM   11  C   UNK N   1      25.937  23.382  -6.921  0.00  0.00     0.043 A 
HETATM   12  C   UNK N   1      26.103  24.506  -7.750  0.00  0.00     0.003 A 
HETATM   13  N   UNK N   1      26.110  22.140  -7.440  0.00  0.00    -0.365 N 
HETATM   14  C   UNK N   1      25.978  25.745  -7.193  0.00  0.00     0.027 A 
HETATM   15  C   UNK N   1      26.464  24.366  -9.112  0.00  0.00    -0.011 A 
HETATM   16  C   UNK N   1      26.647  23.064  -9.595  0.00  0.00     0.030 A 
HETATM   17  C   UNK N   1      26.459  21.963  -8.747  0.00  0.00     0.089 A 
ATOM     18  HN  UNK N   1      25.977  21.324  -6.842  1.00  0.00     0.165 HD
BRANCH  15  19
HETATM   19  C   UNK N   1      26.701  25.551 -10.030  0.00  0.00    -0.007 A 
HETATM   20  C   UNK N   1      27.923  26.245 -10.058  0.00  0.00     0.032 A 
HETATM   21  C   UNK N   1      28.111  27.313 -10.928  0.00  0.00     0.108 A 
HETATM   22  N   UNK N   1      27.104  27.677 -11.757  0.00  0.00    -0.312 N 
HETATM   23  N   UNK N   1      25.934  27.034 -11.746  0.00  0.00    -0.311 N 
ATOM     24  HN  UNK N   1      27.241  28.457 -12.400  1.00  0.00     0.186 HD
HETATM   25  C   UNK N   1      25.701  25.985 -10.907  0.00  0.00     0.119 A 
ATOM     26  HN  UNK N   1      25.195  27.334 -12.382  1.00  0.00     0.186 HD
ENDBRANCH  15  19
ENDBRANCH   3   8
BRANCH   4  27
HETATM   27  N   UNK N   1      28.575  29.793  -6.201  0.00  0.00    -0.276 N 
HETATM   28  H   UNK N   1      28.455  30.564  -6.801  0.00  0.00     0.179 HD
BRANCH  27  29
HETATM   29  S   UNK N   1      30.174  29.144  -5.950  0.00  0.00     0.266 S 
HETATM   30  O   UNK N   1      30.949  29.538  -7.218  0.00  0.00    -0.200 OA
HETATM   31  O   UNK N   1      30.801  29.989  -4.828  0.00  0.00    -0.200 OA
BRANCH  29  32
HETATM   32  C   UNK N   1      29.977  27.413  -5.663  0.00  0.00     0.118 A 
HETATM   33  C   UNK N   1      29.953  26.535  -6.748  0.00  0.00     0.031 A 
HETATM   34  C   UNK N   1      29.615  25.197  -6.551  0.00  0.00     0.044 A 
HETATM   35  C   UNK N   1      29.282  24.743  -5.270  0.00  0.00     0.119 A 
HETATM   36  C   UNK N   1      29.316  25.620  -4.183  0.00  0.00     0.086 A 
HETATM   37  F   UNK N   1      28.904  23.458  -5.088  0.00  0.00    -0.206 F 
HETATM   38  C   UNK N   1      29.665  26.956  -4.376  0.00  0.00     0.142 A 
HETATM   39  F   UNK N   1      29.642  27.815  -3.325  0.00  0.00    -0.204 F 
ENDBRANCH  29  32
ENDBRANCH  27  29
ENDBRANCH   4  27
BRANCH   5  40
HETATM   40  O   UNK N   1      27.410  30.898  -3.862  0.00  0.00    -0.339 OA
HETATM   41  C   UNK N   1      28.009  30.923  -2.625  0.00  0.00     0.211 C 
ENDBRANCH   5  40
TORSDOF 6
ENDMDL
