REMARK  4 active torsions:
REMARK  status: ('A' for Active; 'I' for Inactive)
REMARK       I    between atoms: C_2  and  N_4 
REMARK    1  A    between atoms: N_4  and  C_6 
REMARK    2  A    between atoms: C_10  and  C_12 
REMARK    3  A    between atoms: C_22  and  C_23 
REMARK    4  A    between atoms: C_23  and  C_25 
ROOT
HETATM    1  C   UNK N   1       4.181   1.204   0.261  0.00  0.00     0.070 A 
HETATM    2  C   UNK N   1       5.380   0.483   0.387  0.00  0.00     0.049 A 
HETATM    3  C   UNK N   1       5.320  -0.928   0.464  0.00  0.00     0.092 A 
HETATM    4  N   UNK N   1       4.119  -1.582   0.398  0.00  0.00    -0.350 N 
ATOM      5  HN  UNK N   1       4.078  -2.601   0.440  1.00  0.00     0.166 HD
HETATM    6  C   UNK N   1       2.985  -0.848   0.277  0.00  0.00     0.143 A 
HETATM    7  N   UNK N   1       3.022   0.482   0.223  0.00  0.00    -0.239 N 
HETATM    8  N   UNK N   1       1.789   0.950   0.098  0.00  0.00    -0.302 N 
ATOM      9  HN  UNK N   1       1.529   1.934   0.039  1.00  0.00     0.186 HD
HETATM   10  C   UNK N   1       0.937  -0.090   0.062  0.00  0.00     0.127 A 
HETATM   11  C   UNK N   1       1.670  -1.263   0.167  0.00  0.00     0.078 A 
ENDROOT
BRANCH   1  12
HETATM   12  C   UNK N   1       4.153   2.689   0.128  0.00  0.00    -0.005 A 
HETATM   13  C   UNK N   1       5.301   3.490   0.038  0.00  0.00     0.014 A 
HETATM   14  C   UNK N   1       5.163   4.881  -0.130  0.00  0.00     0.003 A 
HETATM   15  C   UNK N   1       3.885   5.470  -0.205  0.00  0.00     0.030 A 
HETATM   16  C   UNK N   1       2.734   4.665  -0.115  0.00  0.00     0.037 A 
HETATM   17  C   UNK N   1       2.914   3.304   0.044  0.00  0.00     0.043 A 
BRANCH  16  18
HETATM   18  N   UNK N   1       1.383   5.165  -0.188  0.00  0.00    -0.323 N 
HETATM   19  C   UNK N   1       1.066   6.496  -0.207  0.00  0.00     0.220 C 
HETATM   20  C   UNK N   1      -0.366   6.939  -0.278  0.00  0.00     0.117 C 
HETATM   21  O   UNK N   1       1.935   7.351  -0.149  0.00  0.00    -0.274 OA
HETATM   22  C   UNK N   1       0.298   4.200  -0.227  0.00  0.00     0.159 C 
ENDBRANCH  16  18
ENDBRANCH   1  12
BRANCH  11  23
HETATM   23  C   UNK N   1       1.110  -2.631   0.140  0.00  0.00     0.204 C 
HETATM   24  O   UNK N   1       1.864  -3.585   0.247  0.00  0.00    -0.286 OA
BRANCH  23  25
HETATM   25  C   UNK N   1      -0.350  -2.873  -0.024  0.00  0.00     0.056 A 
HETATM   26  C   UNK N   1      -0.968  -4.123  -0.019  0.00  0.00     0.023 A 
HETATM   27  C   UNK N   1      -2.381  -4.049  -0.193  0.00  0.00     0.009 A 
HETATM   28  C   UNK N   1      -2.877  -2.746  -0.338  0.00  0.00     0.050 A 
HETATM   29  S   UNK N   1      -1.557  -1.751  -0.244  0.00  0.00    -0.098 SA
ENDBRANCH  23  25
ENDBRANCH  11  23
TORSDOF 4
