MODEL 1
REMARK VINA RESULT:      -6.5      0.000      0.000
REMARK  2 active torsions:
REMARK  status: ('A' for Active; 'I' for Inactive)
REMARK    1  A    between atoms: C_3  and  O_19 
REMARK    2  A    between atoms: C_9  and  C_12 
ROOT
HETATM    1  C   UNK N   1      35.144  14.499  11.962  0.00  0.00     0.071 C 
HETATM    2  C   UNK N   1      34.451  15.216  10.854  0.00  0.00     0.039 A 
HETATM    3  C   UNK N   1      35.054  16.324  10.222  0.00  0.00     0.097 A 
HETATM    4  C   UNK N   1      34.349  16.950   9.190  0.00  0.00     0.011 A 
HETATM    5  C   UNK N   1      33.143  16.512   8.818  0.00  0.00     0.002 A 
HETATM    6  C   UNK N   1      32.544  15.419   9.439  0.00  0.00     0.099 A 
HETATM    7  N   UNK N   1      33.215  14.793  10.448  0.00  0.00    -0.367 N 
ATOM      8  HN  UNK N   1      32.786  13.991  10.911  1.00  0.00     0.165 HD
HETATM    9  C   UNK N   1      32.674  17.366   7.729  0.00  0.00     0.190 A 
HETATM   10  O   UNK N   1      33.652  18.358   7.445  0.00  0.00    -0.372 OA
HETATM   11  C   UNK N   1      34.735  18.122   8.359  0.00  0.00     0.211 A 
ENDROOT
BRANCH   9  12
HETATM   12  C   UNK N   1      31.374  17.274   6.977  0.00  0.00    -0.025 A 
HETATM   13  C   UNK N   1      31.349  16.912   5.622  0.00  0.00     0.012 A 
HETATM   14  C   UNK N   1      30.127  16.831   4.937  0.00  0.00     0.024 A 
HETATM   15  C   UNK N   1      28.930  17.112   5.605  0.00  0.00     0.034 A 
HETATM   16  C   UNK N   1      28.953  17.473   6.953  0.00  0.00     0.024 A 
HETATM   17 Cl   UNK N   1      27.398  17.015   4.760  0.00  0.00    -0.084 Cl
HETATM   18  C   UNK N   1      30.169  17.553   7.634  0.00  0.00     0.012 A 
ENDBRANCH   9  12
BRANCH   3  19
HETATM   19  O   UNK N   1      36.268  16.765  10.597  0.00  0.00    -0.358 OA
HETATM   20  H   UNK N   1      36.665  16.436  11.381  0.00  0.00     0.217 HD
ENDBRANCH   3  19
TORSDOF 2
ENDMDL
MODEL 2
REMARK VINA RESULT:      -6.1      1.883      2.942
REMARK  2 active torsions:
REMARK  status: ('A' for Active; 'I' for Inactive)
REMARK    1  A    between atoms: C_3  and  O_19 
REMARK    2  A    between atoms: C_9  and  C_12 
ROOT
HETATM    1  C   UNK N   1      35.313  11.941  12.521  0.00  0.00     0.071 C 
HETATM    2  C   UNK N   1      35.029  13.094  11.619  0.00  0.00     0.039 A 
HETATM    3  C   UNK N   1      35.609  14.357  11.859  0.00  0.00     0.097 A 
HETATM    4  C   UNK N   1      35.301  15.395  10.975  0.00  0.00     0.011 A 
HETATM    5  C   UNK N   1      34.482  15.194   9.938  0.00  0.00     0.002 A 
HETATM    6  C   UNK N   1      33.907  13.947   9.698  0.00  0.00     0.099 A 
HETATM    7  N   UNK N   1      34.195  12.921  10.549  0.00  0.00    -0.367 N 
ATOM      8  HN  UNK N   1      33.780  12.003  10.383  1.00  0.00     0.165 HD
HETATM    9  C   UNK N   1      34.362  16.456   9.212  0.00  0.00     0.190 A 
HETATM   10  O   UNK N   1      35.147  17.452   9.853  0.00  0.00    -0.372 OA
HETATM   11  C   UNK N   1      35.761  16.809  10.982  0.00  0.00     0.211 A 
ENDROOT
BRANCH   9  12
HETATM   12  C   UNK N   1      33.553  16.736   7.975  0.00  0.00    -0.025 A 
HETATM   13  C   UNK N   1      32.150  16.749   8.018  0.00  0.00     0.012 A 
HETATM   14  C   UNK N   1      31.413  17.013   6.853  0.00  0.00     0.024 A 
HETATM   15  C   UNK N   1      32.075  17.263   5.646  0.00  0.00     0.034 A 
HETATM   16  C   UNK N   1      33.470  17.251   5.602  0.00  0.00     0.024 A 
HETATM   17 Cl   UNK N   1      31.165  17.593   4.186  0.00  0.00    -0.084 Cl
HETATM   18  C   UNK N   1      34.204  16.988   6.760  0.00  0.00     0.012 A 
ENDBRANCH   9  12
BRANCH   3  19
HETATM   19  O   UNK N   1      36.433  14.560  12.903  0.00  0.00    -0.358 OA
HETATM   20  H   UNK N   1      36.565  15.427  13.235  0.00  0.00     0.217 HD
ENDBRANCH   3  19
TORSDOF 2
ENDMDL
MODEL 3
REMARK VINA RESULT:      -6.1      6.594     10.258
REMARK  2 active torsions:
REMARK  status: ('A' for Active; 'I' for Inactive)
REMARK    1  A    between atoms: C_3  and  O_19 
REMARK    2  A    between atoms: C_9  and  C_12 
ROOT
HETATM    1  C   UNK N   1      34.930  13.828  10.122  0.00  0.00     0.071 C 
HETATM    2  C   UNK N   1      35.180  13.637  11.579  0.00  0.00     0.039 A 
HETATM    3  C   UNK N   1      35.926  14.583  12.313  0.00  0.00     0.097 A 
HETATM    4  C   UNK N   1      36.122  14.342  13.677  0.00  0.00     0.011 A 
HETATM    5  C   UNK N   1      35.619  13.251  14.261  0.00  0.00     0.002 A 
HETATM    6  C   UNK N   1      34.882  12.315  13.539  0.00  0.00     0.099 A 
HETATM    7  N   UNK N   1      34.679  12.530  12.208  0.00  0.00    -0.367 N 
ATOM      8  HN  UNK N   1      34.140  11.851  11.668  1.00  0.00     0.165 HD
HETATM    9  C   UNK N   1      35.993  13.288  15.673  0.00  0.00     0.190 A 
HETATM   10  O   UNK N   1      36.755  14.459  15.935  0.00  0.00    -0.372 OA
HETATM   11  C   UNK N   1      36.857  15.155  14.682  0.00  0.00     0.211 A 
ENDROOT
BRANCH   9  12
HETATM   12  C   UNK N   1      35.662  12.283  16.743  0.00  0.00    -0.025 A 
HETATM   13  C   UNK N   1      35.698  10.906  16.475  0.00  0.00     0.012 A 
HETATM   14  C   UNK N   1      35.386   9.984  17.486  0.00  0.00     0.024 A 
HETATM   15  C   UNK N   1      35.038  10.436  18.763  0.00  0.00     0.034 A 
HETATM   16  C   UNK N   1      35.002  11.805  19.031  0.00  0.00     0.024 A 
HETATM   17 Cl   UNK N   1      34.647   9.294  20.033  0.00  0.00    -0.084 Cl
HETATM   18  C   UNK N   1      35.312  12.723  18.026  0.00  0.00     0.012 A 
ENDBRANCH   9  12
BRANCH   3  19
HETATM   19  O   UNK N   1      36.432  15.681  11.725  0.00  0.00    -0.358 OA
HETATM   20  H   UNK N   1      37.360  15.815  11.702  0.00  0.00     0.217 HD
ENDBRANCH   3  19
TORSDOF 2
ENDMDL
MODEL 4
REMARK VINA RESULT:      -6.0     12.787     14.851
REMARK  2 active torsions:
REMARK  status: ('A' for Active; 'I' for Inactive)
REMARK    1  A    between atoms: C_3  and  O_19 
REMARK    2  A    between atoms: C_9  and  C_12 
ROOT
HETATM    1  C   UNK N   1      33.770  21.954  -4.646  0.00  0.00     0.071 C 
HETATM    2  C   UNK N   1      32.412  22.487  -4.339  0.00  0.00     0.039 A 
HETATM    3  C   UNK N   1      31.800  22.229  -3.094  0.00  0.00     0.097 A 
HETATM    4  C   UNK N   1      30.526  22.760  -2.872  0.00  0.00     0.011 A 
HETATM    5  C   UNK N   1      29.911  23.487  -3.809  0.00  0.00     0.002 A 
HETATM    6  C   UNK N   1      30.512  23.745  -5.039  0.00  0.00     0.099 A 
HETATM    7  N   UNK N   1      31.756  23.236  -5.277  0.00  0.00    -0.367 N 
ATOM      8  HN  UNK N   1      32.206  23.418  -6.174  1.00  0.00     0.165 HD
HETATM    9  C   UNK N   1      28.611  23.892  -3.279  0.00  0.00     0.190 A 
HETATM   10  O   UNK N   1      28.450  23.378  -1.964  0.00  0.00    -0.372 OA
HETATM   11  C   UNK N   1      29.654  22.650  -1.672  0.00  0.00     0.211 A 
ENDROOT
BRANCH   9  12
HETATM   12  C   UNK N   1      27.555  24.721  -3.957  0.00  0.00    -0.025 A 
HETATM   13  C   UNK N   1      26.526  24.116  -4.694  0.00  0.00     0.012 A 
HETATM   14  C   UNK N   1      25.550  24.907  -5.320  0.00  0.00     0.024 A 
HETATM   15  C   UNK N   1      25.600  26.300  -5.210  0.00  0.00     0.034 A 
HETATM   16  C   UNK N   1      26.623  26.904  -4.477  0.00  0.00     0.024 A 
HETATM   17 Cl   UNK N   1      24.386  27.297  -5.987  0.00  0.00    -0.084 Cl
HETATM   18  C   UNK N   1      27.595  26.118  -3.855  0.00  0.00     0.012 A 
ENDBRANCH   9  12
BRANCH   3  19
HETATM   19  O   UNK N   1      32.419  21.497  -2.151  0.00  0.00    -0.358 OA
HETATM   20  H   UNK N   1      31.984  21.311  -1.341  0.00  0.00     0.217 HD
ENDBRANCH   3  19
TORSDOF 2
ENDMDL
MODEL 5
REMARK VINA RESULT:      -6.0     11.722     13.251
REMARK  2 active torsions:
REMARK  status: ('A' for Active; 'I' for Inactive)
REMARK    1  A    between atoms: C_3  and  O_19 
REMARK    2  A    between atoms: C_9  and  C_12 
ROOT
HETATM    1  C   UNK N   1      21.140  19.476   3.831  0.00  0.00     0.071 C 
HETATM    2  C   UNK N   1      20.984  18.188   4.564  0.00  0.00     0.039 A 
HETATM    3  C   UNK N   1      20.055  17.218   4.130  0.00  0.00     0.097 A 
HETATM    4  C   UNK N   1      19.960  16.032   4.864  0.00  0.00     0.011 A 
HETATM    5  C   UNK N   1      20.723  15.826   5.941  0.00  0.00     0.002 A 
HETATM    6  C   UNK N   1      21.641  16.782   6.373  0.00  0.00     0.099 A 
HETATM    7  N   UNK N   1      21.751  17.946   5.671  0.00  0.00    -0.367 N 
ATOM      8  HN  UNK N   1      22.420  18.654   5.978  1.00  0.00     0.165 HD
HETATM    9  C   UNK N   1      20.391  14.511   6.480  0.00  0.00     0.190 A 
HETATM   10  O   UNK N   1      19.380  13.909   5.682  0.00  0.00    -0.372 OA
HETATM   11  C   UNK N   1      19.082  14.852   4.641  0.00  0.00     0.211 A 
ENDROOT
BRANCH   9  12
HETATM   12  C   UNK N   1      20.981  13.830   7.686  0.00  0.00    -0.025 A 
HETATM   13  C   UNK N   1      21.915  12.794   7.544  0.00  0.00     0.012 A 
HETATM   14  C   UNK N   1      22.454  12.172   8.680  0.00  0.00     0.024 A 
HETATM   15  C   UNK N   1      22.061  12.584   9.958  0.00  0.00     0.034 A 
HETATM   16  C   UNK N   1      21.131  13.614  10.101  0.00  0.00     0.024 A 
HETATM   17 Cl   UNK N   1      22.727  11.814  11.384  0.00  0.00    -0.084 Cl
HETATM   18  C   UNK N   1      20.594  14.234   8.971  0.00  0.00     0.012 A 
ENDBRANCH   9  12
BRANCH   3  19
HETATM   19  O   UNK N   1      19.287  17.424   3.046  0.00  0.00    -0.358 OA
HETATM   20  H   UNK N   1      18.517  17.956   3.111  0.00  0.00     0.217 HD
ENDBRANCH   3  19
TORSDOF 2
ENDMDL
MODEL 6
REMARK VINA RESULT:      -6.0      7.895      9.832
REMARK  2 active torsions:
REMARK  status: ('A' for Active; 'I' for Inactive)
REMARK    1  A    between atoms: C_3  and  O_19 
REMARK    2  A    between atoms: C_9  and  C_12 
ROOT
HETATM    1  C   UNK N   1      23.280  11.791  13.229  0.00  0.00     0.071 C 
HETATM    2  C   UNK N   1      23.510  12.166  11.805  0.00  0.00     0.039 A 
HETATM    3  C   UNK N   1      22.448  12.162  10.876  0.00  0.00     0.097 A 
HETATM    4  C   UNK N   1      22.733  12.524   9.557  0.00  0.00     0.011 A 
HETATM    5  C   UNK N   1      23.972  12.863   9.189  0.00  0.00     0.002 A 
HETATM    6  C   UNK N   1      25.024  12.868  10.103  0.00  0.00     0.099 A 
HETATM    7  N   UNK N   1      24.768  12.517  11.396  0.00  0.00    -0.367 N 
ATOM      8  HN  UNK N   1      25.530  12.518  12.075  1.00  0.00     0.165 HD
HETATM    9  C   UNK N   1      23.944  13.185   7.765  0.00  0.00     0.190 A 
HETATM   10  O   UNK N   1      22.622  13.029   7.266  0.00  0.00    -0.372 OA
HETATM   11  C   UNK N   1      21.823  12.608   8.383  0.00  0.00     0.211 A 
ENDROOT
BRANCH   9  12
HETATM   12  C   UNK N   1      25.091  13.620   6.894  0.00  0.00    -0.025 A 
HETATM   13  C   UNK N   1      25.640  14.906   7.013  0.00  0.00     0.012 A 
HETATM   14  C   UNK N   1      26.709  15.294   6.192  0.00  0.00     0.024 A 
HETATM   15  C   UNK N   1      27.230  14.399   5.251  0.00  0.00     0.034 A 
HETATM   16  C   UNK N   1      26.686  13.120   5.130  0.00  0.00     0.024 A 
HETATM   17 Cl   UNK N   1      28.566  14.873   4.220  0.00  0.00    -0.084 Cl
HETATM   18  C   UNK N   1      25.622  12.733   5.948  0.00  0.00     0.012 A 
ENDBRANCH   9  12
BRANCH   3  19
HETATM   19  O   UNK N   1      21.200  11.821  11.246  0.00  0.00    -0.358 OA
HETATM   20  H   UNK N   1      20.635  12.461  11.635  0.00  0.00     0.217 HD
ENDBRANCH   3  19
TORSDOF 2
ENDMDL
MODEL 7
REMARK VINA RESULT:      -5.9      3.128      4.686
REMARK  2 active torsions:
REMARK  status: ('A' for Active; 'I' for Inactive)
REMARK    1  A    between atoms: C_3  and  O_19 
REMARK    2  A    between atoms: C_9  and  C_12 
ROOT
HETATM    1  C   UNK N   1      33.409  15.330   7.168  0.00  0.00     0.071 C 
HETATM    2  C   UNK N   1      32.135  16.096   7.055  0.00  0.00     0.039 A 
HETATM    3  C   UNK N   1      31.403  16.454   8.207  0.00  0.00     0.097 A 
HETATM    4  C   UNK N   1      30.217  17.172   8.029  0.00  0.00     0.011 A 
HETATM    5  C   UNK N   1      29.793  17.508   6.807  0.00  0.00     0.002 A 
HETATM    6  C   UNK N   1      30.513  17.156   5.667  0.00  0.00     0.099 A 
HETATM    7  N   UNK N   1      31.674  16.455   5.818  0.00  0.00    -0.367 N 
ATOM      8  HN  UNK N   1      32.210  16.192   4.990  1.00  0.00     0.165 HD
HETATM    9  C   UNK N   1      28.541  18.244   6.955  0.00  0.00     0.190 A 
HETATM   10  O   UNK N   1      28.208  18.348   8.333  0.00  0.00    -0.372 OA
HETATM   11  C   UNK N   1      29.257  17.675   9.047  0.00  0.00     0.211 A 
ENDROOT
BRANCH   9  12
HETATM   12  C   UNK N   1      27.680  18.830   5.869  0.00  0.00    -0.025 A 
HETATM   13  C   UNK N   1      27.474  20.215   5.781  0.00  0.00     0.012 A 
HETATM   14  C   UNK N   1      26.668  20.743   4.761  0.00  0.00     0.024 A 
HETATM   15  C   UNK N   1      26.067  19.889   3.829  0.00  0.00     0.034 A 
HETATM   16  C   UNK N   1      26.271  18.511   3.915  0.00  0.00     0.024 A 
HETATM   17 Cl   UNK N   1      25.059  20.538   2.551  0.00  0.00    -0.084 Cl
HETATM   18  C   UNK N   1      27.073  17.985   4.930  0.00  0.00     0.012 A 
ENDBRANCH   9  12
BRANCH   3  19
HETATM   19  O   UNK N   1      31.830  16.117   9.437  0.00  0.00    -0.358 OA
HETATM   20  H   UNK N   1      32.219  16.764   9.992  0.00  0.00     0.217 HD
ENDBRANCH   3  19
TORSDOF 2
ENDMDL
MODEL 8
REMARK VINA RESULT:      -5.9      3.443      6.360
REMARK  2 active torsions:
REMARK  status: ('A' for Active; 'I' for Inactive)
REMARK    1  A    between atoms: C_3  and  O_19 
REMARK    2  A    between atoms: C_9  and  C_12 
ROOT
HETATM    1  C   UNK N   1      28.594  17.744   5.508  0.00  0.00     0.071 C 
HETATM    2  C   UNK N   1      29.917  17.403   6.103  0.00  0.00     0.039 A 
HETATM    3  C   UNK N   1      31.099  17.501   5.339  0.00  0.00     0.097 A 
HETATM    4  C   UNK N   1      32.306  17.166   5.959  0.00  0.00     0.011 A 
HETATM    5  C   UNK N   1      32.337  16.766   7.233  0.00  0.00     0.002 A 
HETATM    6  C   UNK N   1      31.172  16.667   7.991  0.00  0.00     0.099 A 
HETATM    7  N   UNK N   1      29.982  16.989   7.405  0.00  0.00    -0.367 N 
ATOM      8  HN  UNK N   1      29.122  16.921   7.950  1.00  0.00     0.165 HD
HETATM    9  C   UNK N   1      33.728  16.493   7.583  0.00  0.00     0.190 A 
HETATM   10  O   UNK N   1      34.561  16.745   6.459  0.00  0.00    -0.372 OA
HETATM   11  C   UNK N   1      33.686  17.176   5.404  0.00  0.00     0.211 A 
ENDROOT
BRANCH   9  12
HETATM   12  C   UNK N   1      34.273  16.018   8.902  0.00  0.00    -0.025 A 
HETATM   13  C   UNK N   1      34.128  14.681   9.303  0.00  0.00     0.012 A 
HETATM   14  C   UNK N   1      34.642  14.257  10.538  0.00  0.00     0.024 A 
HETATM   15  C   UNK N   1      35.302  15.166  11.372  0.00  0.00     0.034 A 
HETATM   16  C   UNK N   1      35.447  16.496  10.975  0.00  0.00     0.024 A 
HETATM   17 Cl   UNK N   1      35.948  14.647  12.916  0.00  0.00    -0.084 Cl
HETATM   18  C   UNK N   1      34.935  16.918   9.747  0.00  0.00     0.012 A 
ENDBRANCH   9  12
BRANCH   3  19
HETATM   19  O   UNK N   1      31.069  17.905   4.056  0.00  0.00    -0.358 OA
HETATM   20  H   UNK N   1      30.402  17.584   3.479  0.00  0.00     0.217 HD
ENDBRANCH   3  19
TORSDOF 2
ENDMDL
MODEL 9
REMARK VINA RESULT:      -5.8      4.959      8.359
REMARK  2 active torsions:
REMARK  status: ('A' for Active; 'I' for Inactive)
REMARK    1  A    between atoms: C_3  and  O_19 
REMARK    2  A    between atoms: C_9  and  C_12 
ROOT
HETATM    1  C   UNK N   1      34.156  16.187   7.770  0.00  0.00     0.071 C 
HETATM    2  C   UNK N   1      34.667  15.485   8.982  0.00  0.00     0.039 A 
HETATM    3  C   UNK N   1      35.730  14.563   8.888  0.00  0.00     0.097 A 
HETATM    4  C   UNK N   1      36.160  13.940  10.064  0.00  0.00     0.011 A 
HETATM    5  C   UNK N   1      35.581  14.213  11.237  0.00  0.00     0.002 A 
HETATM    6  C   UNK N   1      34.531  15.123  11.334  0.00  0.00     0.099 A 
HETATM    7  N   UNK N   1      34.096  15.742  10.199  0.00  0.00    -0.367 N 
ATOM      8  HN  UNK N   1      33.327  16.411  10.257  1.00  0.00     0.165 HD
HETATM    9  C   UNK N   1      36.247  13.412  12.260  0.00  0.00     0.190 A 
HETATM   10  O   UNK N   1      37.271  12.628  11.663  0.00  0.00    -0.372 OA
HETATM   11  C   UNK N   1      37.243  12.941  10.261  0.00  0.00     0.211 A 
ENDROOT
BRANCH   9  12
HETATM   12  C   UNK N   1      35.954  13.369  13.736  0.00  0.00    -0.025 A 
HETATM   13  C   UNK N   1      34.894  12.599  14.238  0.00  0.00     0.012 A 
HETATM   14  C   UNK N   1      34.636  12.572  15.617  0.00  0.00     0.024 A 
HETATM   15  C   UNK N   1      35.435  13.312  16.494  0.00  0.00     0.034 A 
HETATM   16  C   UNK N   1      36.489  14.079  15.997  0.00  0.00     0.024 A 
HETATM   17 Cl   UNK N   1      35.122  13.286  18.218  0.00  0.00    -0.084 Cl
HETATM   18  C   UNK N   1      36.747  14.107  14.625  0.00  0.00     0.012 A 
ENDBRANCH   9  12
BRANCH   3  19
HETATM   19  O   UNK N   1      36.313  14.289   7.707  0.00  0.00    -0.358 OA
HETATM   20  H   UNK N   1      35.793  14.233   6.929  0.00  0.00     0.217 HD
ENDBRANCH   3  19
TORSDOF 2
ENDMDL
