MODEL 1
REMARK VINA RESULT:      -8.2      0.000      0.000
REMARK  5 active torsions:
REMARK  status: ('A' for Active; 'I' for Inactive)
REMARK    1  A    between atoms: C_3  and  C_14 
REMARK    2  A    between atoms: C_14  and  O_15 
REMARK    3  A    between atoms: O_15  and  C_16 
REMARK    4  A    between atoms: C_19  and  C_22 
REMARK    5  A    between atoms: C_22  and  C_23 
ROOT
HETATM    1  C   UNK N   1      31.794  16.563   3.363  0.00  0.00     0.069 A 
HETATM    2  C   UNK N   1      32.150  17.681   4.120  0.00  0.00     0.037 A 
HETATM    3  C   UNK N   1      33.173  17.589   5.057  0.00  0.00     0.010 A 
HETATM    4  C   UNK N   1      33.849  16.379   5.226  0.00  0.00    -0.056 A 
HETATM    5  C   UNK N   1      33.543  15.276   4.423  0.00  0.00     0.010 A 
HETATM    6  C   UNK N   1      32.522  15.370   3.483  0.00  0.00     0.037 A 
ENDROOT
BRANCH   1   7
HETATM    7  O   UNK N   1      30.723  16.652   2.560  0.00  0.00    -0.344 OA
BRANCH   7   8
HETATM    8  C   UNK N   1      29.511  16.068   2.827  0.00  0.00     0.252 C 
BRANCH   8   9
HETATM    9  C   UNK N   1      28.931  16.848   3.939  0.00  0.00     0.111 A 
HETATM   10  N   UNK N   1      28.934  16.361   5.222  0.00  0.00    -0.306 N 
HETATM   11  C   UNK N   1      29.418  15.009   5.499  0.00  0.00     0.161 C 
HETATM   12  C   UNK N   1      28.504  17.154   6.261  0.00  0.00     0.261 A 
HETATM   13  C   UNK N   1      28.065  18.458   6.001  0.00  0.00     0.059 A 
HETATM   14  O   UNK N   1      28.521  16.729   7.407  0.00  0.00    -0.267 OA
HETATM   15  C   UNK N   1      27.645  19.315   7.026  0.00  0.00     0.019 A 
HETATM   16  C   UNK N   1      28.062  18.915   4.669  0.00  0.00     0.049 A 
HETATM   17  C   UNK N   1      27.227  20.614   6.724  0.00  0.00     0.001 A 
HETATM   18  C   UNK N   1      27.224  21.061   5.399  0.00  0.00     0.002 A 
HETATM   19  C   UNK N   1      27.642  20.212   4.372  0.00  0.00     0.030 A 
HETATM   20  N   UNK N   1      28.494  18.104   3.679  0.00  0.00    -0.343 N 
ATOM     21  HN  UNK N   1      28.490  18.444   2.717  1.00  0.00     0.167 HD
ENDBRANCH   8   9
ENDBRANCH   7   8
ENDBRANCH   1   7
BRANCH   4  22
HETATM   22  C   UNK N   1      34.676  16.194   6.441  0.00  0.00     0.063 C 
BRANCH  22  23
HETATM   23  C   UNK N   1      33.892  16.738   7.650  0.00  0.00     0.153 A 
HETATM   24  C   UNK N   1      34.664  17.796   8.416  0.00  0.00     0.239 A 
HETATM   25  O   UNK N   1      34.951  18.884   7.939  0.00  0.00    -0.272 OA
HETATM   26  N   UNK N   1      35.017  17.483   9.663  0.00  0.00    -0.287 N 
HETATM   27  C   UNK N   1      34.591  16.276  10.040  0.00  0.00     0.287 A 
HETATM   28  H   UNK N   1      35.537  18.081  10.247  0.00  0.00     0.172 HD
HETATM   29  O   UNK N   1      34.847  15.829  11.144  0.00  0.00    -0.260 OA
HETATM   30  S   UNK N   1      33.607  15.375   8.844  0.00  0.00    -0.054 SA
ENDBRANCH  22  23
ENDBRANCH   4  22
TORSDOF 5
ENDMDL
MODEL 2
REMARK VINA RESULT:      -7.7      5.636     10.996
REMARK  5 active torsions:
REMARK  status: ('A' for Active; 'I' for Inactive)
REMARK    1  A    between atoms: C_3  and  C_14 
REMARK    2  A    between atoms: C_14  and  O_15 
REMARK    3  A    between atoms: O_15  and  C_16 
REMARK    4  A    between atoms: C_19  and  C_22 
REMARK    5  A    between atoms: C_22  and  C_23 
ROOT
HETATM    1  C   UNK N   1      34.967  14.789  11.592  0.00  0.00     0.069 A 
HETATM    2  C   UNK N   1      34.181  14.239  10.579  0.00  0.00     0.037 A 
HETATM    3  C   UNK N   1      33.860  14.997   9.458  0.00  0.00     0.010 A 
HETATM    4  C   UNK N   1      34.340  16.303   9.347  0.00  0.00    -0.056 A 
HETATM    5  C   UNK N   1      35.184  16.836  10.327  0.00  0.00     0.010 A 
HETATM    6  C   UNK N   1      35.507  16.074  11.445  0.00  0.00     0.037 A 
ENDROOT
BRANCH   1   7
HETATM    7  O   UNK N   1      35.152  14.075  12.713  0.00  0.00    -0.344 OA
BRANCH   7   8
HETATM    8  C   UNK N   1      36.305  13.395  13.010  0.00  0.00     0.252 C 
BRANCH   8   9
HETATM    9  C   UNK N   1      36.040  12.704  14.288  0.00  0.00     0.111 A 
HETATM   10  N   UNK N   1      36.235  11.351  14.414  0.00  0.00    -0.306 N 
HETATM   11  C   UNK N   1      36.610  10.546  13.252  0.00  0.00     0.161 C 
HETATM   12  C   UNK N   1      36.103  10.747  15.644  0.00  0.00     0.261 A 
HETATM   13  C   UNK N   1      35.770  11.522  16.763  0.00  0.00     0.059 A 
HETATM   14  O   UNK N   1      36.292   9.545  15.763  0.00  0.00    -0.267 OA
HETATM   15  C   UNK N   1      35.653  10.961  18.040  0.00  0.00     0.019 A 
HETATM   16  C   UNK N   1      35.563  12.903  16.589  0.00  0.00     0.049 A 
HETATM   17  C   UNK N   1      35.332  11.772  19.133  0.00  0.00     0.001 A 
HETATM   18  C   UNK N   1      35.125  13.143  18.953  0.00  0.00     0.002 A 
HETATM   19  C   UNK N   1      35.241  13.709  17.682  0.00  0.00     0.030 A 
HETATM   20  N   UNK N   1      35.704  13.455  15.364  0.00  0.00    -0.343 N 
ATOM     21  HN  UNK N   1      35.554  14.458  15.247  1.00  0.00     0.167 HD
ENDBRANCH   8   9
ENDBRANCH   7   8
ENDBRANCH   1   7
BRANCH   4  22
HETATM   22  C   UNK N   1      33.721  17.203   8.347  0.00  0.00     0.063 C 
BRANCH  22  23
HETATM   23  C   UNK N   1      33.180  16.344   7.188  0.00  0.00     0.153 A 
HETATM   24  C   UNK N   1      34.043  16.435   5.944  0.00  0.00     0.239 A 
HETATM   25  O   UNK N   1      35.190  16.017   5.899  0.00  0.00    -0.272 OA
HETATM   26  N   UNK N   1      33.479  16.998   4.874  0.00  0.00    -0.287 N 
HETATM   27  C   UNK N   1      32.213  17.362   5.081  0.00  0.00     0.287 A 
HETATM   28  H   UNK N   1      33.949  17.130   4.019  0.00  0.00     0.172 HD
HETATM   29  O   UNK N   1      31.560  17.909   4.211  0.00  0.00    -0.260 OA
HETATM   30  S   UNK N   1      31.531  16.975   6.692  0.00  0.00    -0.054 SA
ENDBRANCH  22  23
ENDBRANCH   4  22
TORSDOF 5
ENDMDL
MODEL 3
REMARK VINA RESULT:      -7.6     11.984     16.713
REMARK  5 active torsions:
REMARK  status: ('A' for Active; 'I' for Inactive)
REMARK    1  A    between atoms: C_3  and  C_14 
REMARK    2  A    between atoms: C_14  and  O_15 
REMARK    3  A    between atoms: O_15  and  C_16 
REMARK    4  A    between atoms: C_19  and  C_22 
REMARK    5  A    between atoms: C_22  and  C_23 
ROOT
HETATM    1  C   UNK N   1      35.365  11.382  19.655  0.00  0.00     0.069 A 
HETATM    2  C   UNK N   1      35.479  10.589  18.512  0.00  0.00     0.037 A 
HETATM    3  C   UNK N   1      35.384  11.167  17.252  0.00  0.00     0.010 A 
HETATM    4  C   UNK N   1      35.189  12.545  17.136  0.00  0.00    -0.056 A 
HETATM    5  C   UNK N   1      35.142  13.354  18.277  0.00  0.00     0.010 A 
HETATM    6  C   UNK N   1      35.241  12.774  19.537  0.00  0.00     0.037 A 
ENDROOT
BRANCH   1   7
HETATM    7  O   UNK N   1      35.336  10.775  20.851  0.00  0.00    -0.344 OA
BRANCH   7   8
HETATM    8  C   UNK N   1      35.223   9.419  21.023  0.00  0.00     0.252 C 
BRANCH   8   9
HETATM    9  C   UNK N   1      34.119   9.232  21.986  0.00  0.00     0.111 A 
HETATM   10  N   UNK N   1      33.347   8.098  21.965  0.00  0.00    -0.306 N 
HETATM   11  C   UNK N   1      33.534   7.094  20.917  0.00  0.00     0.161 C 
HETATM   12  C   UNK N   1      32.406   7.886  22.947  0.00  0.00     0.261 A 
HETATM   13  C   UNK N   1      32.244   8.833  23.966  0.00  0.00     0.059 A 
HETATM   14  O   UNK N   1      31.728   6.869  22.940  0.00  0.00    -0.267 OA
HETATM   15  C   UNK N   1      31.322   8.651  25.004  0.00  0.00     0.019 A 
HETATM   16  C   UNK N   1      33.045   9.991  23.943  0.00  0.00     0.049 A 
HETATM   17  C   UNK N   1      31.202   9.615  26.009  0.00  0.00     0.001 A 
HETATM   18  C   UNK N   1      31.998  10.764  25.979  0.00  0.00     0.002 A 
HETATM   19  C   UNK N   1      32.919  10.952  24.947  0.00  0.00     0.030 A 
HETATM   20  N   UNK N   1      33.957  10.159  22.961  0.00  0.00    -0.343 N 
ATOM     21  HN  UNK N   1      34.534  11.000  22.953  1.00  0.00     0.167 HD
ENDBRANCH   8   9
ENDBRANCH   7   8
ENDBRANCH   1   7
BRANCH   4  22
HETATM   22  C   UNK N   1      34.745  13.091  15.833  0.00  0.00     0.063 C 
BRANCH  22  23
HETATM   23  C   UNK N   1      35.934  13.039  14.854  0.00  0.00     0.153 A 
HETATM   24  C   UNK N   1      36.754  14.315  14.864  0.00  0.00     0.239 A 
HETATM   25  O   UNK N   1      37.395  14.685  15.837  0.00  0.00    -0.272 OA
HETATM   26  N   UNK N   1      36.750  15.029  13.737  0.00  0.00    -0.287 N 
HETATM   27  C   UNK N   1      36.034  14.464  12.764  0.00  0.00     0.287 A 
HETATM   28  H   UNK N   1      37.227  15.884  13.635  0.00  0.00     0.172 HD
HETATM   29  O   UNK N   1      35.911  14.998  11.676  0.00  0.00    -0.260 OA
HETATM   30  S   UNK N   1      35.295  12.877  13.142  0.00  0.00    -0.054 SA
ENDBRANCH  22  23
ENDBRANCH   4  22
TORSDOF 5
ENDMDL
MODEL 4
REMARK VINA RESULT:      -7.6      4.076      5.266
REMARK  5 active torsions:
REMARK  status: ('A' for Active; 'I' for Inactive)
REMARK    1  A    between atoms: C_3  and  C_14 
REMARK    2  A    between atoms: C_14  and  O_15 
REMARK    3  A    between atoms: O_15  and  C_16 
REMARK    4  A    between atoms: C_19  and  C_22 
REMARK    5  A    between atoms: C_22  and  C_23 
ROOT
HETATM    1  C   UNK N   1      27.682  17.521   6.021  0.00  0.00     0.069 A 
HETATM    2  C   UNK N   1      27.740  18.530   6.984  0.00  0.00     0.037 A 
HETATM    3  C   UNK N   1      28.847  18.630   7.820  0.00  0.00     0.010 A 
HETATM    4  C   UNK N   1      29.903  17.727   7.681  0.00  0.00    -0.056 A 
HETATM    5  C   UNK N   1      29.880  16.757   6.673  0.00  0.00     0.010 A 
HETATM    6  C   UNK N   1      28.775  16.661   5.835  0.00  0.00     0.037 A 
ENDROOT
BRANCH   1   7
HETATM    7  O   UNK N   1      26.549  17.377   5.318  0.00  0.00    -0.344 OA
BRANCH   7   8
HETATM    8  C   UNK N   1      26.421  17.699   3.991  0.00  0.00     0.252 C 
BRANCH   8   9
HETATM    9  C   UNK N   1      25.094  18.333   3.863  0.00  0.00     0.111 A 
HETATM   10  N   UNK N   1      24.970  19.639   3.459  0.00  0.00    -0.306 N 
HETATM   11  C   UNK N   1      26.158  20.464   3.247  0.00  0.00     0.161 C 
HETATM   12  C   UNK N   1      23.722  20.172   3.225  0.00  0.00     0.261 A 
HETATM   13  C   UNK N   1      22.585  19.375   3.402  0.00  0.00     0.059 A 
HETATM   14  O   UNK N   1      23.609  21.330   2.850  0.00  0.00    -0.267 OA
HETATM   15  C   UNK N   1      21.296  19.862   3.150  0.00  0.00     0.019 A 
HETATM   16  C   UNK N   1      22.753  18.045   3.832  0.00  0.00     0.049 A 
HETATM   17  C   UNK N   1      20.187  19.028   3.325  0.00  0.00     0.001 A 
HETATM   18  C   UNK N   1      20.361  17.709   3.756  0.00  0.00     0.002 A 
HETATM   19  C   UNK N   1      21.644  17.218   4.009  0.00  0.00     0.030 A 
HETATM   20  N   UNK N   1      23.996  17.561   4.049  0.00  0.00    -0.343 N 
ATOM     21  HN  UNK N   1      24.109  16.596   4.359  1.00  0.00     0.167 HD
ENDBRANCH   8   9
ENDBRANCH   7   8
ENDBRANCH   1   7
BRANCH   4  22
HETATM   22  C   UNK N   1      30.893  17.620   8.778  0.00  0.00     0.063 C 
BRANCH  22  23
HETATM   23  C   UNK N   1      32.167  16.959   8.219  0.00  0.00     0.153 A 
HETATM   24  C   UNK N   1      32.667  15.825   9.094  0.00  0.00     0.239 A 
HETATM   25  O   UNK N   1      32.040  14.790   9.264  0.00  0.00    -0.272 OA
HETATM   26  N   UNK N   1      33.852  16.009   9.679  0.00  0.00    -0.287 N 
HETATM   27  C   UNK N   1      34.418  17.173   9.358  0.00  0.00     0.287 A 
HETATM   28  H   UNK N   1      34.265  15.353  10.285  0.00  0.00     0.172 HD
HETATM   29  O   UNK N   1      35.494  17.504   9.824  0.00  0.00    -0.260 OA
HETATM   30  S   UNK N   1      33.523  18.195   8.191  0.00  0.00    -0.054 SA
ENDBRANCH  22  23
ENDBRANCH   4  22
TORSDOF 5
ENDMDL
MODEL 5
REMARK VINA RESULT:      -7.5      3.746      9.276
REMARK  5 active torsions:
REMARK  status: ('A' for Active; 'I' for Inactive)
REMARK    1  A    between atoms: C_3  and  C_14 
REMARK    2  A    between atoms: C_14  and  O_15 
REMARK    3  A    between atoms: O_15  and  C_16 
REMARK    4  A    between atoms: C_19  and  C_22 
REMARK    5  A    between atoms: C_22  and  C_23 
ROOT
HETATM    1  C   UNK N   1      34.647  16.467   9.435  0.00  0.00     0.069 A 
HETATM    2  C   UNK N   1      34.591  17.695   8.773  0.00  0.00     0.037 A 
HETATM    3  C   UNK N   1      33.477  18.022   8.008  0.00  0.00     0.010 A 
HETATM    4  C   UNK N   1      32.412  17.123   7.917  0.00  0.00    -0.056 A 
HETATM    5  C   UNK N   1      32.434  15.921   8.632  0.00  0.00     0.010 A 
HETATM    6  C   UNK N   1      33.547  15.598   9.401  0.00  0.00     0.037 A 
ENDROOT
BRANCH   1   7
HETATM    7  O   UNK N   1      35.786  16.132  10.060  0.00  0.00    -0.344 OA
BRANCH   7   8
HETATM    8  C   UNK N   1      36.340  14.877  10.030  0.00  0.00     0.252 C 
BRANCH   8   9
HETATM    9  C   UNK N   1      35.989  14.258  11.323  0.00  0.00     0.111 A 
HETATM   10  N   UNK N   1      35.300  13.072  11.376  0.00  0.00    -0.306 N 
HETATM   11  C   UNK N   1      34.805  12.449  10.148  0.00  0.00     0.161 C 
HETATM   12  C   UNK N   1      35.092  12.448  12.585  0.00  0.00     0.261 A 
HETATM   13  C   UNK N   1      35.589  13.031  13.758  0.00  0.00     0.059 A 
HETATM   14  O   UNK N   1      34.493  11.384  12.633  0.00  0.00    -0.267 OA
HETATM   15  C   UNK N   1      35.430  12.422  15.009  0.00  0.00     0.019 A 
HETATM   16  C   UNK N   1      36.277  14.255  13.664  0.00  0.00     0.049 A 
HETATM   17  C   UNK N   1      35.953  13.030  16.154  0.00  0.00     0.001 A 
HETATM   18  C   UNK N   1      36.632  14.249  16.054  0.00  0.00     0.002 A 
HETATM   19  C   UNK N   1      36.794  14.861  14.809  0.00  0.00     0.030 A 
HETATM   20  N   UNK N   1      36.459  14.833  12.456  0.00  0.00    -0.343 N 
ATOM     21  HN  UNK N   1      36.960  15.720  12.397  1.00  0.00     0.167 HD
ENDBRANCH   8   9
ENDBRANCH   7   8
ENDBRANCH   1   7
BRANCH   4  22
HETATM   22  C   UNK N   1      31.410  17.318   6.845  0.00  0.00     0.063 C 
BRANCH  22  23
HETATM   23  C   UNK N   1      31.846  16.496   5.617  0.00  0.00     0.153 A 
HETATM   24  C   UNK N   1      32.320  17.369   4.470  0.00  0.00     0.239 A 
HETATM   25  O   UNK N   1      33.325  18.061   4.534  0.00  0.00    -0.272 OA
HETATM   26  N   UNK N   1      31.580  17.342   3.361  0.00  0.00    -0.287 N 
HETATM   27  C   UNK N   1      30.543  16.506   3.445  0.00  0.00     0.287 A 
HETATM   28  H   UNK N   1      31.778  17.882   2.563  0.00  0.00     0.172 HD
HETATM   29  O   UNK N   1      29.755  16.379   2.525  0.00  0.00    -0.260 OA
HETATM   30  S   UNK N   1      30.399  15.573   4.967  0.00  0.00    -0.054 SA
ENDBRANCH  22  23
ENDBRANCH   4  22
TORSDOF 5
ENDMDL
MODEL 6
REMARK VINA RESULT:      -7.5      6.894     10.465
REMARK  5 active torsions:
REMARK  status: ('A' for Active; 'I' for Inactive)
REMARK    1  A    between atoms: C_3  and  C_14 
REMARK    2  A    between atoms: C_14  and  O_15 
REMARK    3  A    between atoms: O_15  and  C_16 
REMARK    4  A    between atoms: C_19  and  C_22 
REMARK    5  A    between atoms: C_22  and  C_23 
ROOT
HETATM    1  C   UNK N   1      34.974  12.444  13.804  0.00  0.00     0.069 A 
HETATM    2  C   UNK N   1      36.239  12.724  14.325  0.00  0.00     0.037 A 
HETATM    3  C   UNK N   1      36.686  12.056  15.460  0.00  0.00     0.010 A 
HETATM    4  C   UNK N   1      35.871  11.098  16.065  0.00  0.00    -0.056 A 
HETATM    5  C   UNK N   1      34.632  10.766  15.508  0.00  0.00     0.010 A 
HETATM    6  C   UNK N   1      34.187  11.431  14.371  0.00  0.00     0.037 A 
ENDROOT
BRANCH   1   7
HETATM    7  O   UNK N   1      34.525  13.194  12.786  0.00  0.00    -0.344 OA
BRANCH   7   8
HETATM    8  C   UNK N   1      34.945  13.058  11.487  0.00  0.00     0.252 C 
BRANCH   8   9
HETATM    9  C   UNK N   1      34.536  14.303  10.806  0.00  0.00     0.111 A 
HETATM   10  N   UNK N   1      35.282  15.449  10.919  0.00  0.00    -0.306 N 
HETATM   11  C   UNK N   1      36.445  15.490  11.804  0.00  0.00     0.161 C 
HETATM   12  C   UNK N   1      34.953  16.561  10.177  0.00  0.00     0.261 A 
HETATM   13  C   UNK N   1      33.855  16.514   9.309  0.00  0.00     0.059 A 
HETATM   14  O   UNK N   1      35.626  17.578  10.263  0.00  0.00    -0.267 OA
HETATM   15  C   UNK N   1      33.497  17.608   8.512  0.00  0.00     0.019 A 
HETATM   16  C   UNK N   1      33.106  15.325   9.234  0.00  0.00     0.049 A 
HETATM   17  C   UNK N   1      32.402  17.515   7.648  0.00  0.00     0.001 A 
HETATM   18  C   UNK N   1      31.659  16.332   7.580  0.00  0.00     0.002 A 
HETATM   19  C   UNK N   1      32.011  15.237   8.373  0.00  0.00     0.030 A 
HETATM   20  N   UNK N   1      33.463  14.256   9.979  0.00  0.00    -0.343 N 
ATOM     21  HN  UNK N   1      32.916  13.398   9.917  1.00  0.00     0.167 HD
ENDBRANCH   8   9
ENDBRANCH   7   8
ENDBRANCH   1   7
BRANCH   4  22
HETATM   22  C   UNK N   1      36.197  10.657  17.440  0.00  0.00     0.063 C 
BRANCH  22  23
HETATM   23  C   UNK N   1      34.982  10.944  18.344  0.00  0.00     0.153 A 
HETATM   24  C   UNK N   1      35.286  11.967  19.421  0.00  0.00     0.239 A 
HETATM   25  O   UNK N   1      35.549  13.134  19.173  0.00  0.00    -0.272 OA
HETATM   26  N   UNK N   1      35.245  11.529  20.680  0.00  0.00    -0.287 N 
HETATM   27  C   UNK N   1      34.904  10.243  20.775  0.00  0.00     0.287 A 
HETATM   28  H   UNK N   1      35.445  12.096  21.459  0.00  0.00     0.172 HD
HETATM   29  O   UNK N   1      34.840   9.682  21.855  0.00  0.00    -0.260 OA
HETATM   30  S   UNK N   1      34.523   9.408  19.237  0.00  0.00    -0.054 SA
ENDBRANCH  22  23
ENDBRANCH   4  22
TORSDOF 5
ENDMDL
MODEL 7
REMARK VINA RESULT:      -7.4      4.436      6.979
REMARK  5 active torsions:
REMARK  status: ('A' for Active; 'I' for Inactive)
REMARK    1  A    between atoms: C_3  and  C_14 
REMARK    2  A    between atoms: C_14  and  O_15 
REMARK    3  A    between atoms: O_15  and  C_16 
REMARK    4  A    between atoms: C_19  and  C_22 
REMARK    5  A    between atoms: C_22  and  C_23 
ROOT
HETATM    1  C   UNK N   1      34.792  15.194  10.322  0.00  0.00     0.069 A 
HETATM    2  C   UNK N   1      34.535  13.847  10.583  0.00  0.00     0.037 A 
HETATM    3  C   UNK N   1      34.998  13.265  11.758  0.00  0.00     0.010 A 
HETATM    4  C   UNK N   1      35.707  14.038  12.679  0.00  0.00    -0.056 A 
HETATM    5  C   UNK N   1      35.909  15.403  12.455  0.00  0.00     0.010 A 
HETATM    6  C   UNK N   1      35.441  15.985  11.281  0.00  0.00     0.037 A 
ENDROOT
BRANCH   1   7
HETATM    7  O   UNK N   1      34.441  15.689   9.126  0.00  0.00    -0.344 OA
BRANCH   7   8
HETATM    8  C   UNK N   1      34.357  17.029   8.844  0.00  0.00     0.252 C 
BRANCH   8   9
HETATM    9  C   UNK N   1      33.011  17.230   8.270  0.00  0.00     0.111 A 
HETATM   10  N   UNK N   1      32.792  17.114   6.921  0.00  0.00    -0.306 N 
HETATM   11  C   UNK N   1      33.912  16.891   6.006  0.00  0.00     0.161 C 
HETATM   12  C   UNK N   1      31.511  17.180   6.422  0.00  0.00     0.261 A 
HETATM   13  C   UNK N   1      30.436  17.367   7.299  0.00  0.00     0.059 A 
HETATM   14  O   UNK N   1      31.311  17.061   5.221  0.00  0.00    -0.267 OA
HETATM   15  C   UNK N   1      29.112  17.413   6.845  0.00  0.00     0.019 A 
HETATM   16  C   UNK N   1      30.703  17.498   8.675  0.00  0.00     0.049 A 
HETATM   17  C   UNK N   1      28.066  17.587   7.756  0.00  0.00     0.001 A 
HETATM   18  C   UNK N   1      28.338  17.720   9.121  0.00  0.00     0.002 A 
HETATM   19  C   UNK N   1      29.656  17.675   9.581  0.00  0.00     0.030 A 
HETATM   20  N   UNK N   1      31.975  17.425   9.122  0.00  0.00    -0.343 N 
ATOM     21  HN  UNK N   1      32.160  17.519  10.121  1.00  0.00     0.167 HD
ENDBRANCH   8   9
ENDBRANCH   7   8
ENDBRANCH   1   7
BRANCH   4  22
HETATM   22  C   UNK N   1      36.484  13.347  13.734  0.00  0.00     0.063 C 
BRANCH  22  23
HETATM   23  C   UNK N   1      35.676  12.125  14.212  0.00  0.00     0.153 A 
HETATM   24  C   UNK N   1      34.987  12.366  15.541  0.00  0.00     0.239 A 
HETATM   25  O   UNK N   1      34.093  13.186  15.688  0.00  0.00    -0.272 OA
HETATM   26  N   UNK N   1      35.405  11.622  16.567  0.00  0.00    -0.287 N 
HETATM   27  C   UNK N   1      36.357  10.751  16.227  0.00  0.00     0.287 A 
HETATM   28  H   UNK N   1      35.047  11.705  17.480  0.00  0.00     0.172 HD
HETATM   29  O   UNK N   1      36.861  10.010  17.051  0.00  0.00    -0.260 OA
HETATM   30  S   UNK N   1      36.822  10.721  14.497  0.00  0.00    -0.054 SA
ENDBRANCH  22  23
ENDBRANCH   4  22
TORSDOF 5
ENDMDL
MODEL 8
REMARK VINA RESULT:      -7.3      3.242      8.654
REMARK  5 active torsions:
REMARK  status: ('A' for Active; 'I' for Inactive)
REMARK    1  A    between atoms: C_3  and  C_14 
REMARK    2  A    between atoms: C_14  and  O_15 
REMARK    3  A    between atoms: O_15  and  C_16 
REMARK    4  A    between atoms: C_19  and  C_22 
REMARK    5  A    between atoms: C_22  and  C_23 
ROOT
HETATM    1  C   UNK N   1      31.370  17.879   8.370  0.00  0.00     0.069 A 
HETATM    2  C   UNK N   1      30.308  18.501   9.028  0.00  0.00     0.037 A 
HETATM    3  C   UNK N   1      29.037  18.486   8.464  0.00  0.00     0.010 A 
HETATM    4  C   UNK N   1      28.828  17.835   7.246  0.00  0.00    -0.056 A 
HETATM    5  C   UNK N   1      29.875  17.152   6.618  0.00  0.00     0.010 A 
HETATM    6  C   UNK N   1      31.144  17.164   7.185  0.00  0.00     0.037 A 
ENDROOT
BRANCH   1   7
HETATM    7  O   UNK N   1      32.604  18.020   8.879  0.00  0.00    -0.344 OA
BRANCH   7   8
HETATM    8  C   UNK N   1      33.757  17.863   8.154  0.00  0.00     0.252 C 
BRANCH   8   9
HETATM    9  C   UNK N   1      34.408  16.656   8.701  0.00  0.00     0.111 A 
HETATM   10  N   UNK N   1      34.914  15.687   7.871  0.00  0.00    -0.306 N 
HETATM   11  C   UNK N   1      34.725  15.780   6.424  0.00  0.00     0.161 C 
HETATM   12  C   UNK N   1      35.626  14.632   8.396  0.00  0.00     0.261 A 
HETATM   13  C   UNK N   1      35.831  14.556   9.779  0.00  0.00     0.059 A 
HETATM   14  O   UNK N   1      36.092  13.777   7.658  0.00  0.00    -0.267 OA
HETATM   15  C   UNK N   1      36.572  13.519  10.360  0.00  0.00     0.019 A 
HETATM   16  C   UNK N   1      35.282  15.561  10.598  0.00  0.00     0.049 A 
HETATM   17  C   UNK N   1      36.765  13.488  11.744  0.00  0.00     0.001 A 
HETATM   18  C   UNK N   1      36.214  14.488  12.553  0.00  0.00     0.002 A 
HETATM   19  C   UNK N   1      35.474  15.524  11.980  0.00  0.00     0.030 A 
HETATM   20  N   UNK N   1      34.590  16.579  10.042  0.00  0.00    -0.343 N 
ATOM     21  HN  UNK N   1      34.198  17.304  10.642  1.00  0.00     0.167 HD
ENDBRANCH   8   9
ENDBRANCH   7   8
ENDBRANCH   1   7
BRANCH   4  22
HETATM   22  C   UNK N   1      27.584  18.117   6.495  0.00  0.00     0.063 C 
BRANCH  22  23
HETATM   23  C   UNK N   1      27.934  19.015   5.293  0.00  0.00     0.153 A 
HETATM   24  C   UNK N   1      27.398  20.425   5.443  0.00  0.00     0.239 A 
HETATM   25  O   UNK N   1      27.789  21.197   6.306  0.00  0.00    -0.272 OA
HETATM   26  N   UNK N   1      26.464  20.799   4.566  0.00  0.00    -0.287 N 
HETATM   27  C   UNK N   1      26.182  19.853   3.669  0.00  0.00     0.287 A 
HETATM   28  H   UNK N   1      26.029  21.681   4.580  0.00  0.00     0.172 HD
HETATM   29  O   UNK N   1      25.336  20.027   2.809  0.00  0.00    -0.260 OA
HETATM   30  S   UNK N   1      27.134  18.340   3.786  0.00  0.00    -0.054 SA
ENDBRANCH  22  23
ENDBRANCH   4  22
TORSDOF 5
ENDMDL
MODEL 9
REMARK VINA RESULT:      -7.2      2.556      4.133
REMARK  5 active torsions:
REMARK  status: ('A' for Active; 'I' for Inactive)
REMARK    1  A    between atoms: C_3  and  C_14 
REMARK    2  A    between atoms: C_14  and  O_15 
REMARK    3  A    between atoms: O_15  and  C_16 
REMARK    4  A    between atoms: C_19  and  C_22 
REMARK    5  A    between atoms: C_22  and  C_23 
ROOT
HETATM    1  C   UNK N   1      32.332  17.028   8.685  0.00  0.00     0.069 A 
HETATM    2  C   UNK N   1      33.534  17.725   8.554  0.00  0.00     0.037 A 
HETATM    3  C   UNK N   1      34.741  17.084   8.809  0.00  0.00     0.010 A 
HETATM    4  C   UNK N   1      34.744  15.739   9.182  0.00  0.00    -0.056 A 
HETATM    5  C   UNK N   1      33.547  15.017   9.249  0.00  0.00     0.010 A 
HETATM    6  C   UNK N   1      32.341  15.659   8.989  0.00  0.00     0.037 A 
ENDROOT
BRANCH   1   7
HETATM    7  O   UNK N   1      31.183  17.709   8.553  0.00  0.00    -0.344 OA
BRANCH   7   8
HETATM    8  C   UNK N   1      29.953  17.120   8.400  0.00  0.00     0.252 C 
BRANCH   8   9
HETATM    9  C   UNK N   1      29.359  17.750   7.204  0.00  0.00     0.111 A 
HETATM   10  N   UNK N   1      29.478  17.170   5.966  0.00  0.00    -0.306 N 
HETATM   11  C   UNK N   1      30.289  15.966   5.788  0.00  0.00     0.161 C 
HETATM   12  C   UNK N   1      28.811  17.706   4.887  0.00  0.00     0.261 A 
HETATM   13  C   UNK N   1      28.013  18.843   5.062  0.00  0.00     0.059 A 
HETATM   14  O   UNK N   1      28.903  17.182   3.786  0.00  0.00    -0.267 OA
HETATM   15  C   UNK N   1      27.292  19.409   4.003  0.00  0.00     0.019 A 
HETATM   16  C   UNK N   1      27.929  19.417   6.345  0.00  0.00     0.049 A 
HETATM   17  C   UNK N   1      26.495  20.536   4.224  0.00  0.00     0.001 A 
HETATM   18  C   UNK N   1      26.419  21.104   5.499  0.00  0.00     0.002 A 
HETATM   19  C   UNK N   1      27.135  20.544   6.559  0.00  0.00     0.030 A 
HETATM   20  N   UNK N   1      28.599  18.859   7.376  0.00  0.00    -0.343 N 
ATOM     21  HN  UNK N   1      28.532  19.280   8.303  1.00  0.00     0.167 HD
ENDBRANCH   8   9
ENDBRANCH   7   8
ENDBRANCH   1   7
BRANCH   4  22
HETATM   22  C   UNK N   1      35.974  15.172   9.781  0.00  0.00     0.063 C 
BRANCH  22  23
HETATM   23  C   UNK N   1      35.564  14.137  10.847  0.00  0.00     0.153 A 
HETATM   24  C   UNK N   1      36.247  14.372  12.180  0.00  0.00     0.239 A 
HETATM   25  O   UNK N   1      36.043  15.362  12.867  0.00  0.00    -0.272 OA
HETATM   26  N   UNK N   1      37.096  13.425  12.584  0.00  0.00    -0.287 N 
HETATM   27  C   UNK N   1      37.172  12.396  11.738  0.00  0.00     0.287 A 
HETATM   28  H   UNK N   1      37.612  13.479  13.420  0.00  0.00     0.172 HD
HETATM   29  O   UNK N   1      37.918  11.456  11.948  0.00  0.00    -0.260 OA
HETATM   30  S   UNK N   1      36.103  12.470  10.303  0.00  0.00    -0.054 SA
ENDBRANCH  22  23
ENDBRANCH   4  22
TORSDOF 5
ENDMDL
