REMARK  5 active torsions:
REMARK  status: ('A' for Active; 'I' for Inactive)
REMARK    1  A    between atoms: C_2  and  N_4 
REMARK    2  A    between atoms: N_4  and  C_5 
REMARK    3  A    between atoms: C_5  and  C_6 
REMARK    4  A    between atoms: C_6  and  C_7 
REMARK    5  A    between atoms: C_6  and  O_15 
ROOT
HETATM    1  C   UNK N   1       2.482  -1.540   0.333  0.00  0.00     0.168 C 
ENDROOT
BRANCH   1   2
HETATM    2  C   UNK N   1       1.291  -2.063  -0.459  0.00  0.00     0.150 C 
BRANCH   2   3
HETATM    3  N   UNK N   1       0.734  -3.220   0.231  0.00  0.00    -0.415 N 
HETATM    4  H   UNK N   1       1.153  -3.687   1.036  0.00  0.00     0.153 HD
BRANCH   3   5
HETATM    5  C   UNK N   1      -0.512  -3.603  -0.412  0.00  0.00     0.068 C 
HETATM    6  C   UNK N   1      -1.638  -2.699   0.055  0.00  0.00     0.031 C 
HETATM    7  C   UNK N   1      -0.844  -5.029  -0.023  0.00  0.00     0.031 C 
ENDBRANCH   3   5
ENDBRANCH   2   3
ENDBRANCH   1   2
BRANCH   1   8
HETATM    8  C   UNK N   1       3.720  -2.387   0.154  0.00  0.00    -0.026 A 
HETATM    9  C   UNK N   1       4.953  -1.802  -0.171  0.00  0.00     0.011 A 
HETATM   10  C   UNK N   1       6.098  -2.593  -0.301  0.00  0.00     0.026 A 
HETATM   11  C   UNK N   1       6.022  -3.978  -0.121  0.00  0.00     0.055 A 
HETATM   12  C   UNK N   1       4.789  -4.572   0.195  0.00  0.00     0.056 A 
HETATM   13 Cl   UNK N   1       7.479  -4.942  -0.296  0.00  0.00    -0.083 Cl
HETATM   14  C   UNK N   1       3.652  -3.774   0.343  0.00  0.00     0.035 A 
HETATM   15 Cl   UNK N   1       4.636  -6.309   0.404  0.00  0.00    -0.083 Cl
ENDBRANCH   1   8
BRANCH   1  16
HETATM   16  O   UNK N   1       2.723  -0.208  -0.012  0.00  0.00    -0.389 OA
HETATM   17  H   UNK N   1       3.608   0.110  -0.252  0.00  0.00     0.210 HD
ENDBRANCH   1  16
TORSDOF 5
