REMARK  6 active torsions:
REMARK  status: ('A' for Active; 'I' for Inactive)
REMARK    1  A    between atoms: C_17  and  C_15 
REMARK    2  A    between atoms: C_19  and  C_16 
REMARK    3  A    between atoms: N_36  and  C_23 
REMARK    4  A    between atoms: S_40  and  C_24 
REMARK    5  A    between atoms: O_39  and  C_25 
REMARK    6  A    between atoms: S_40  and  N_36 
ROOT
HETATM    1  C   UNK N   1      -0.368   0.414   0.017  0.00  0.00     0.048 A 
HETATM    2  C   UNK N   1      -1.691   2.408  -0.117  0.00  0.00     0.102 A 
HETATM    3  C   UNK N   1      -0.467   1.796   0.173  0.00  0.00    -0.008 A 
HETATM    4  C   UNK N   1      -1.402  -0.338  -0.440  0.00  0.00     0.094 A 
HETATM    5  C   UNK N   1      -2.609   0.291  -0.768  0.00  0.00     0.169 A 
HETATM    6  N   UNK N   1      -2.734   1.647  -0.565  0.00  0.00    -0.344 N 
ATOM      7  HN  UNK N   1      -3.630   2.095  -0.755  1.00  0.00     0.167 HD
ENDROOT
BRANCH   3   8
HETATM    8  C   UNK N   1       0.806   2.517   0.374  0.00  0.00    -0.024 A 
HETATM    9  C   UNK N   1       0.962   3.911   0.386  0.00  0.00     0.014 A 
HETATM   10  C   UNK N   1       2.266   4.455   0.326  0.00  0.00     0.031 A 
HETATM   11  C   UNK N   1       3.388   3.604   0.205  0.00  0.00     0.043 A 
HETATM   12  C   UNK N   1       3.206   2.209   0.204  0.00  0.00     0.003 A 
HETATM   13  N   UNK N   1       4.637   4.113   0.050  0.00  0.00    -0.365 N 
HETATM   14  C   UNK N   1       1.936   1.722   0.306  0.00  0.00     0.027 A 
HETATM   15  C   UNK N   1       4.299   1.327   0.027  0.00  0.00    -0.011 A 
HETATM   16  C   UNK N   1       5.565   1.903  -0.146  0.00  0.00     0.030 A 
HETATM   17  C   UNK N   1       5.716   3.297  -0.124  0.00  0.00     0.089 A 
ATOM     18  HN  UNK N   1       4.771   5.124   0.064  1.00  0.00     0.165 HD
BRANCH  15  19
HETATM   19  C   UNK N   1       4.143  -0.181  -0.030  0.00  0.00    -0.007 A 
HETATM   20  C   UNK N   1       2.918  -0.819   0.231  0.00  0.00     0.032 A 
HETATM   21  C   UNK N   1       2.808  -2.202   0.148  0.00  0.00     0.108 A 
HETATM   22  N   UNK N   1       3.895  -2.934  -0.193  0.00  0.00    -0.312 N 
HETATM   23  N   UNK N   1       5.069  -2.350  -0.444  0.00  0.00    -0.311 N 
ATOM     24  HN  UNK N   1       3.816  -3.949  -0.260  1.00  0.00     0.186 HD
HETATM   25  C   UNK N   1       5.227  -0.998  -0.370  0.00  0.00     0.119 A 
ATOM     26  HN  UNK N   1       5.869  -2.930  -0.697  1.00  0.00     0.186 HD
ENDBRANCH  15  19
ENDBRANCH   3   8
BRANCH   4  27
HETATM   27  N   UNK N   1      -1.162  -1.706  -0.680  0.00  0.00    -0.276 N 
HETATM   28  H   UNK N   1      -0.831  -1.990  -1.563  0.00  0.00     0.179 HD
BRANCH  27  29
HETATM   29  S   UNK N   1      -1.442  -2.906   0.554  0.00  0.00     0.266 S 
HETATM   30  O   UNK N   1      -0.273  -3.892   0.401  0.00  0.00    -0.200 OA
HETATM   31  O   UNK N   1      -1.186  -2.199   1.896  0.00  0.00    -0.200 OA
BRANCH  29  32
HETATM   32  C   UNK N   1      -3.057  -3.560   0.265  0.00  0.00     0.118 A 
HETATM   33  C   UNK N   1      -3.198  -4.745  -0.459  0.00  0.00     0.031 A 
HETATM   34  C   UNK N   1      -4.466  -5.171  -0.852  0.00  0.00     0.044 A 
HETATM   35  C   UNK N   1      -5.590  -4.401  -0.535  0.00  0.00     0.119 A 
HETATM   36  C   UNK N   1      -5.449  -3.220   0.199  0.00  0.00     0.086 A 
HETATM   37  F   UNK N   1      -6.814  -4.788  -0.960  0.00  0.00    -0.206 F 
HETATM   38  C   UNK N   1      -4.183  -2.798   0.602  0.00  0.00     0.142 A 
HETATM   39  F   UNK N   1      -4.047  -1.622   1.266  0.00  0.00    -0.204 F 
ENDBRANCH  29  32
ENDBRANCH  27  29
ENDBRANCH   4  27
BRANCH   5  40
HETATM   40  O   UNK N   1      -3.618  -0.429  -1.302  0.00  0.00    -0.339 OA
HETATM   41  C   UNK N   1      -4.791   0.144  -1.732  0.00  0.00     0.211 C 
ENDBRANCH   5  40
TORSDOF 6
