MODEL 1
REMARK VINA RESULT:      -7.9      0.000      0.000
REMARK  6 active torsions:
REMARK  status: ('A' for Active; 'I' for Inactive)
REMARK    1  A    between atoms: O_2  and  C_3 
REMARK    2  A    between atoms: C_6  and  C_12 
REMARK    3  A    between atoms: C_25  and  C_15 
REMARK    4  A    between atoms: C_18  and  N_24 
REMARK    5  A    between atoms: C_28  and  C_31 
REMARK    6  A    between atoms: C_31  and  O_33 
ROOT
HETATM    1  C   UNK N   1      35.658  13.596  11.045  0.00  0.00     0.093 A 
HETATM    2  N   UNK N   1      34.693  14.421  10.596  0.00  0.00    -0.340 N 
ATOM      3  HN  UNK N   1      33.883  14.758  11.115  1.00  0.00     0.167 HD
HETATM    4  C   UNK N   1      35.019  14.708   9.319  0.00  0.00     0.109 A 
HETATM    5  N   UNK N   1      36.142  14.056   8.945  0.00  0.00    -0.237 N 
HETATM    6  C   UNK N   1      36.554  13.352  10.007  0.00  0.00     0.130 A 
HETATM    7  C   UNK N   1      37.731  12.599   9.910  0.00  0.00     0.131 A 
HETATM    8  N   UNK N   1      38.410  12.624   8.729  0.00  0.00    -0.336 N 
ATOM      9  HN  UNK N   1      39.264  12.076   8.629  1.00  0.00     0.168 HD
HETATM   10  C   UNK N   1      37.961  13.372   7.676  0.00  0.00     0.199 A 
HETATM   11  N   UNK N   1      36.811  14.097   7.794  0.00  0.00    -0.288 N 
ATOM     12  HN  UNK N   1      36.471  14.661   7.016  1.00  0.00     0.188 HD
ENDROOT
BRANCH   1  13
HETATM   13  C   UNK N   1      35.765  13.281  12.468  0.00  0.00     0.063 A 
HETATM   14  N   UNK N   1      36.567  13.958  13.315  0.00  0.00    -0.351 N 
HETATM   15  C   UNK N   1      36.160  13.614  14.541  0.00  0.00     0.076 A 
HETATM   16  H   UNK N   1      37.297  14.575  13.079  0.00  0.00     0.166 HD
HETATM   17  C   UNK N   1      36.645  14.114  15.740  0.00  0.00     0.095 A 
HETATM   18  C   UNK N   1      35.126  12.725  14.485  0.00  0.00    -0.004 A 
HETATM   19  C   UNK N   1      36.035  13.656  16.931  0.00  0.00     0.039 A 
HETATM   20  C   UNK N   1      34.971  12.725  16.875  0.00  0.00     0.004 A 
HETATM   21  C   UNK N   1      34.500  12.253  15.634  0.00  0.00     0.014 A 
HETATM   22  C   UNK N   1      34.839  12.497  13.161  0.00  0.00     0.045 A 
BRANCH  17  23
HETATM   23  O   UNK N   1      37.644  15.026  15.730  0.00  0.00    -0.354 OA
HETATM   24  C   UNK N   1      37.493  16.313  16.187  0.00  0.00     0.210 C 
ENDBRANCH  17  23
ENDBRANCH   1  13
BRANCH   4  25
HETATM   25  C   UNK N   1      34.236  15.739   8.561  0.00  0.00     0.055 C 
HETATM   26  C   UNK N   1      34.630  17.202   8.777  0.00  0.00     0.013 C 
HETATM   27  C   UNK N   1      33.544  18.189   8.284  0.00  0.00     0.016 C 
HETATM   28  C   UNK N   1      32.451  17.553   7.395  0.00  0.00     0.084 C 
HETATM   29  C   UNK N   1      31.815  16.332   8.067  0.00  0.00     0.016 C 
HETATM   30  C   UNK N   1      32.773  15.543   8.955  0.00  0.00     0.013 C 
BRANCH  28  31
HETATM   31  C   UNK N   1      32.914  17.218   6.000  0.00  0.00     0.143 C 
HETATM   32  O   UNK N   1      32.381  16.324   5.361  0.00  0.00    -0.650 OA
BRANCH  31  33
HETATM   33  O   UNK N   1      33.946  17.894   5.460  0.00  0.00    -0.776 OA
HETATM   34  H   UNK N   1      34.738  17.447   5.236  0.00  0.00     0.167 HD
ENDBRANCH  31  33
ENDBRANCH  28  31
ENDBRANCH   4  25
BRANCH   7  35
HETATM   35  N   UNK N   1      38.209  11.809  10.974  0.00  0.00    -0.383 N 
HETATM   36  H   UNK N   1      39.024  11.262  10.889  0.00  0.00     0.157 HD
HETATM   37  H   UNK N   1      37.717  11.804  11.826  0.00  0.00     0.157 HD
ENDBRANCH   7  35
TORSDOF 6
ENDMDL
MODEL 2
REMARK VINA RESULT:      -7.7     12.477     14.660
REMARK  6 active torsions:
REMARK  status: ('A' for Active; 'I' for Inactive)
REMARK    1  A    between atoms: O_2  and  C_3 
REMARK    2  A    between atoms: C_6  and  C_12 
REMARK    3  A    between atoms: C_25  and  C_15 
REMARK    4  A    between atoms: C_18  and  N_24 
REMARK    5  A    between atoms: C_28  and  C_31 
REMARK    6  A    between atoms: C_31  and  O_33 
ROOT
HETATM    1  C   UNK N   1      21.769  16.795   5.832  0.00  0.00     0.093 A 
HETATM    2  N   UNK N   1      22.976  17.387   5.904  0.00  0.00    -0.340 N 
ATOM      3  HN  UNK N   1      23.673  17.274   6.640  1.00  0.00     0.167 HD
HETATM    4  C   UNK N   1      23.074  18.160   4.804  0.00  0.00     0.109 A 
HETATM    5  N   UNK N   1      21.945  18.096   4.063  0.00  0.00    -0.237 N 
HETATM    6  C   UNK N   1      21.116  17.253   4.691  0.00  0.00     0.130 A 
HETATM    7  C   UNK N   1      19.870  16.971   4.119  0.00  0.00     0.131 A 
HETATM    8  N   UNK N   1      19.560  17.571   2.935  0.00  0.00    -0.336 N 
ATOM      9  HN  UNK N   1      18.654  17.390   2.502  1.00  0.00     0.168 HD
HETATM   10  C   UNK N   1      20.445  18.412   2.320  0.00  0.00     0.199 A 
HETATM   11  N   UNK N   1      21.654  18.672   2.897  0.00  0.00    -0.288 N 
ATOM     12  HN  UNK N   1      22.322  19.294   2.445  1.00  0.00     0.188 HD
ENDROOT
BRANCH   1  13
HETATM   13  C   UNK N   1      21.426  15.694   6.730  0.00  0.00     0.063 A 
HETATM   14  N   UNK N   1      22.117  14.537   6.775  0.00  0.00    -0.351 N 
HETATM   15  C   UNK N   1      21.727  13.934   7.902  0.00  0.00     0.076 A 
HETATM   16  H   UNK N   1      22.771  14.206   6.116  0.00  0.00     0.166 HD
HETATM   17  C   UNK N   1      22.219  12.742   8.412  0.00  0.00     0.095 A 
HETATM   18  C   UNK N   1      20.795  14.681   8.563  0.00  0.00    -0.004 A 
HETATM   19  C   UNK N   1      21.708  12.303   9.655  0.00  0.00     0.039 A 
HETATM   20  C   UNK N   1      20.733  13.071  10.335  0.00  0.00     0.004 A 
HETATM   21  C   UNK N   1      20.269  14.283   9.788  0.00  0.00     0.014 A 
HETATM   22  C   UNK N   1      20.586  15.828   7.838  0.00  0.00     0.045 A 
BRANCH  17  23
HETATM   23  O   UNK N   1      23.175  12.067   7.731  0.00  0.00    -0.354 OA
HETATM   24  C   UNK N   1      23.640  10.832   8.114  0.00  0.00     0.210 C 
ENDBRANCH  17  23
ENDBRANCH   1  13
BRANCH   4  25
HETATM   25  C   UNK N   1      24.369  18.844   4.482  0.00  0.00     0.055 C 
HETATM   26  C   UNK N   1      24.289  20.102   3.614  0.00  0.00     0.013 C 
HETATM   27  C   UNK N   1      25.660  20.500   3.015  0.00  0.00     0.016 C 
HETATM   28  C   UNK N   1      26.873  19.778   3.646  0.00  0.00     0.084 C 
HETATM   29  C   UNK N   1      26.693  18.256   3.636  0.00  0.00     0.016 C 
HETATM   30  C   UNK N   1      25.243  17.802   3.785  0.00  0.00     0.013 C 
BRANCH  28  31
HETATM   31  C   UNK N   1      27.228  20.268   5.026  0.00  0.00     0.143 C 
HETATM   32  O   UNK N   1      27.766  19.527   5.835  0.00  0.00    -0.650 OA
BRANCH  31  33
HETATM   33  O   UNK N   1      26.924  21.531   5.384  0.00  0.00    -0.776 OA
HETATM   34  H   UNK N   1      27.156  21.849   6.234  0.00  0.00     0.167 HD
ENDBRANCH  31  33
ENDBRANCH  28  31
ENDBRANCH   4  25
BRANCH   7  35
HETATM   35  N   UNK N   1      18.932  16.120   4.736  0.00  0.00    -0.383 N 
HETATM   36  H   UNK N   1      17.981  16.123   4.481  0.00  0.00     0.157 HD
HETATM   37  H   UNK N   1      19.236  15.504   5.441  0.00  0.00     0.157 HD
ENDBRANCH   7  35
TORSDOF 6
ENDMDL
MODEL 3
REMARK VINA RESULT:      -7.7      9.680     13.364
REMARK  6 active torsions:
REMARK  status: ('A' for Active; 'I' for Inactive)
REMARK    1  A    between atoms: O_2  and  C_3 
REMARK    2  A    between atoms: C_6  and  C_12 
REMARK    3  A    between atoms: C_25  and  C_15 
REMARK    4  A    between atoms: C_18  and  N_24 
REMARK    5  A    between atoms: C_28  and  C_31 
REMARK    6  A    between atoms: C_31  and  O_33 
ROOT
HETATM    1  C   UNK N   1      25.392  18.075   4.839  0.00  0.00     0.093 A 
HETATM    2  N   UNK N   1      24.542  17.204   5.414  0.00  0.00    -0.340 N 
ATOM      3  HN  UNK N   1      24.783  16.413   6.011  1.00  0.00     0.167 HD
HETATM    4  C   UNK N   1      23.306  17.591   5.038  0.00  0.00     0.109 A 
HETATM    5  N   UNK N   1      23.362  18.660   4.213  0.00  0.00    -0.237 N 
HETATM    6  C   UNK N   1      24.656  18.974   4.071  0.00  0.00     0.130 A 
HETATM    7  C   UNK N   1      25.007  20.079   3.286  0.00  0.00     0.131 A 
HETATM    8  N   UNK N   1      24.004  20.791   2.701  0.00  0.00    -0.336 N 
ATOM      9  HN  UNK N   1      24.233  21.594   2.115  1.00  0.00     0.168 HD
HETATM   10  C   UNK N   1      22.694  20.445   2.887  0.00  0.00     0.199 A 
HETATM   11  N   UNK N   1      22.377  19.364   3.657  0.00  0.00    -0.288 N 
ATOM     12  HN  UNK N   1      21.403  19.099   3.805  1.00  0.00     0.188 HD
ENDROOT
BRANCH   1  13
HETATM   13  C   UNK N   1      26.799  18.110   5.232  0.00  0.00     0.063 A 
HETATM   14  N   UNK N   1      27.204  18.267   6.508  0.00  0.00    -0.351 N 
HETATM   15  C   UNK N   1      28.497  17.927   6.515  0.00  0.00     0.076 A 
HETATM   16  H   UNK N   1      26.662  18.568   7.273  0.00  0.00     0.166 HD
HETATM   17  C   UNK N   1      29.327  17.864   7.624  0.00  0.00     0.095 A 
HETATM   18  C   UNK N   1      28.919  17.572   5.266  0.00  0.00    -0.004 A 
HETATM   19  C   UNK N   1      30.656  17.425   7.420  0.00  0.00     0.039 A 
HETATM   20  C   UNK N   1      31.097  17.068   6.125  0.00  0.00     0.004 A 
HETATM   21  C   UNK N   1      30.218  17.135   5.027  0.00  0.00     0.014 A 
HETATM   22  C   UNK N   1      27.844  17.669   4.417  0.00  0.00     0.045 A 
BRANCH  17  23
HETATM   23  O   UNK N   1      28.839  18.189   8.844  0.00  0.00    -0.354 OA
HETATM   24  C   UNK N   1      29.633  18.607   9.884  0.00  0.00     0.210 C 
ENDBRANCH  17  23
ENDBRANCH   1  13
BRANCH   4  25
HETATM   25  C   UNK N   1      22.099  16.930   5.635  0.00  0.00     0.055 C 
HETATM   26  C   UNK N   1      21.249  17.774   6.587  0.00  0.00     0.013 C 
HETATM   27  C   UNK N   1      20.286  16.917   7.443  0.00  0.00     0.016 C 
HETATM   28  C   UNK N   1      20.125  15.456   6.963  0.00  0.00     0.084 C 
HETATM   29  C   UNK N   1      21.481  14.760   6.805  0.00  0.00     0.016 C 
HETATM   30  C   UNK N   1      22.609  15.692   6.372  0.00  0.00     0.013 C 
BRANCH  28  31
HETATM   31  C   UNK N   1      19.296  15.309   5.713  0.00  0.00     0.143 C 
HETATM   32  O   UNK N   1      19.711  14.670   4.758  0.00  0.00    -0.650 OA
BRANCH  31  33
HETATM   33  O   UNK N   1      18.094  15.913   5.635  0.00  0.00    -0.776 OA
HETATM   34  H   UNK N   1      17.962  16.626   5.042  0.00  0.00     0.167 HD
ENDBRANCH  31  33
ENDBRANCH  28  31
ENDBRANCH   4  25
BRANCH   7  35
HETATM   35  N   UNK N   1      26.348  20.451   3.065  0.00  0.00    -0.383 N 
HETATM   36  H   UNK N   1      26.591  21.349   2.743  0.00  0.00     0.157 HD
HETATM   37  H   UNK N   1      27.062  19.796   3.239  0.00  0.00     0.157 HD
ENDBRANCH   7  35
TORSDOF 6
ENDMDL
MODEL 4
REMARK VINA RESULT:      -7.5      8.704     12.324
REMARK  6 active torsions:
REMARK  status: ('A' for Active; 'I' for Inactive)
REMARK    1  A    between atoms: O_2  and  C_3 
REMARK    2  A    between atoms: C_6  and  C_12 
REMARK    3  A    between atoms: C_25  and  C_15 
REMARK    4  A    between atoms: C_18  and  N_24 
REMARK    5  A    between atoms: C_28  and  C_31 
REMARK    6  A    between atoms: C_31  and  O_33 
ROOT
HETATM    1  C   UNK N   1      26.498  17.611   5.388  0.00  0.00     0.093 A 
HETATM    2  N   UNK N   1      25.384  16.896   5.639  0.00  0.00    -0.340 N 
ATOM      3  HN  UNK N   1      25.305  16.069   6.230  1.00  0.00     0.167 HD
HETATM    4  C   UNK N   1      24.396  17.499   4.947  0.00  0.00     0.109 A 
HETATM    5  N   UNK N   1      24.868  18.550   4.241  0.00  0.00    -0.237 N 
HETATM    6  C   UNK N   1      26.179  18.634   4.499  0.00  0.00     0.130 A 
HETATM    7  C   UNK N   1      26.923  19.669   3.918  0.00  0.00     0.131 A 
HETATM    8  N   UNK N   1      26.268  20.553   3.114  0.00  0.00    -0.336 N 
ATOM      9  HN  UNK N   1      26.789  21.309   2.670  1.00  0.00     0.168 HD
HETATM   10  C   UNK N   1      24.924  20.439   2.892  0.00  0.00     0.199 A 
HETATM   11  N   UNK N   1      24.220  19.422   3.470  0.00  0.00    -0.288 N 
ATOM     12  HN  UNK N   1      23.217  19.331   3.314  1.00  0.00     0.188 HD
ENDROOT
BRANCH   1  13
HETATM   13  C   UNK N   1      27.712  17.395   6.172  0.00  0.00     0.063 A 
HETATM   14  N   UNK N   1      28.815  16.802   5.673  0.00  0.00    -0.351 N 
HETATM   15  C   UNK N   1      29.790  17.072   6.547  0.00  0.00     0.076 A 
HETATM   16  H   UNK N   1      28.888  16.281   4.840  0.00  0.00     0.166 HD
HETATM   17  C   UNK N   1      31.127  16.728   6.423  0.00  0.00     0.095 A 
HETATM   18  C   UNK N   1      29.321  17.813   7.594  0.00  0.00    -0.004 A 
HETATM   19  C   UNK N   1      32.010  17.161   7.439  0.00  0.00     0.039 A 
HETATM   20  C   UNK N   1      31.522  17.918   8.530  0.00  0.00     0.004 A 
HETATM   21  C   UNK N   1      30.158  18.257   8.612  0.00  0.00     0.014 A 
HETATM   22  C   UNK N   1      27.985  18.047   7.376  0.00  0.00     0.045 A 
BRANCH  17  23
HETATM   23  O   UNK N   1      31.540  16.028   5.340  0.00  0.00    -0.354 OA
HETATM   24  C   UNK N   1      32.291  16.580   4.330  0.00  0.00     0.210 C 
ENDBRANCH  17  23
ENDBRANCH   1  13
BRANCH   4  25
HETATM   25  C   UNK N   1      22.975  17.053   5.128  0.00  0.00     0.055 C 
HETATM   26  C   UNK N   1      22.064  17.968   5.949  0.00  0.00     0.013 C 
HETATM   27  C   UNK N   1      20.769  17.257   6.411  0.00  0.00     0.016 C 
HETATM   28  C   UNK N   1      20.486  15.910   5.706  0.00  0.00     0.084 C 
HETATM   29  C   UNK N   1      21.689  14.965   5.793  0.00  0.00     0.016 C 
HETATM   30  C   UNK N   1      23.038  15.676   5.787  0.00  0.00     0.013 C 
BRANCH  28  31
HETATM   31  C   UNK N   1      20.013  16.051   4.282  0.00  0.00     0.143 C 
HETATM   32  O   UNK N   1      20.464  15.337   3.400  0.00  0.00    -0.650 OA
BRANCH  31  33
HETATM   33  O   UNK N   1      19.103  16.994   3.972  0.00  0.00    -0.776 OA
HETATM   34  H   UNK N   1      19.272  17.604   3.282  0.00  0.00     0.167 HD
ENDBRANCH  31  33
ENDBRANCH  28  31
ENDBRANCH   4  25
BRANCH   7  35
HETATM   35  N   UNK N   1      28.311  19.802   4.117  0.00  0.00    -0.383 N 
HETATM   36  H   UNK N   1      28.684  20.158   4.956  0.00  0.00     0.157 HD
HETATM   37  H   UNK N   1      28.926  19.532   3.398  0.00  0.00     0.157 HD
ENDBRANCH   7  35
TORSDOF 6
ENDMDL
MODEL 5
REMARK VINA RESULT:      -7.4      6.795     11.666
REMARK  6 active torsions:
REMARK  status: ('A' for Active; 'I' for Inactive)
REMARK    1  A    between atoms: O_2  and  C_3 
REMARK    2  A    between atoms: C_6  and  C_12 
REMARK    3  A    between atoms: C_25  and  C_15 
REMARK    4  A    between atoms: C_18  and  N_24 
REMARK    5  A    between atoms: C_28  and  C_31 
REMARK    6  A    between atoms: C_31  and  O_33 
ROOT
HETATM    1  C   UNK N   1      28.588  17.554   5.674  0.00  0.00     0.093 A 
HETATM    2  N   UNK N   1      29.495  16.706   5.153  0.00  0.00    -0.340 N 
ATOM      3  HN  UNK N   1      29.436  16.215   4.261  1.00  0.00     0.167 HD
HETATM    4  C   UNK N   1      30.496  16.638   6.054  0.00  0.00     0.109 A 
HETATM    5  N   UNK N   1      30.224  17.393   7.141  0.00  0.00    -0.237 N 
HETATM    6  C   UNK N   1      29.034  17.969   6.926  0.00  0.00     0.130 A 
HETATM    7  C   UNK N   1      28.517  18.844   7.889  0.00  0.00     0.131 A 
HETATM    8  N   UNK N   1      29.259  19.073   9.008  0.00  0.00    -0.336 N 
ATOM      9  HN  UNK N   1      28.900  19.698   9.730  1.00  0.00     0.168 HD
HETATM   10  C   UNK N   1      30.477  18.476   9.179  0.00  0.00     0.199 A 
HETATM   11  N   UNK N   1      30.961  17.627   8.226  0.00  0.00    -0.288 N 
ATOM     12  HN  UNK N   1      31.870  17.180   8.341  1.00  0.00     0.188 HD
ENDROOT
BRANCH   1  13
HETATM   13  C   UNK N   1      27.488  18.060   4.855  0.00  0.00     0.063 A 
HETATM   14  N   UNK N   1      26.207  17.672   5.021  0.00  0.00    -0.351 N 
HETATM   15  C   UNK N   1      25.476  18.561   4.343  0.00  0.00     0.076 A 
HETATM   16  H   UNK N   1      25.880  16.898   5.535  0.00  0.00     0.166 HD
HETATM   17  C   UNK N   1      24.092  18.613   4.279  0.00  0.00     0.095 A 
HETATM   18  C   UNK N   1      26.270  19.495   3.741  0.00  0.00    -0.004 A 
HETATM   19  C   UNK N   1      23.511  19.675   3.546  0.00  0.00     0.039 A 
HETATM   20  C   UNK N   1      24.334  20.636   2.913  0.00  0.00     0.004 A 
HETATM   21  C   UNK N   1      25.736  20.553   3.013  0.00  0.00     0.014 A 
HETATM   22  C   UNK N   1      27.574  19.206   4.062  0.00  0.00     0.045 A 
BRANCH  17  23
HETATM   23  O   UNK N   1      23.357  17.683   4.932  0.00  0.00    -0.354 OA
HETATM   24  C   UNK N   1      22.306  17.999   5.758  0.00  0.00     0.210 C 
ENDBRANCH  17  23
ENDBRANCH   1  13
BRANCH   4  25
HETATM   25  C   UNK N   1      31.757  15.899   5.717  0.00  0.00     0.055 C 
HETATM   26  C   UNK N   1      32.461  16.290   4.416  0.00  0.00     0.013 C 
HETATM   27  C   UNK N   1      33.498  15.235   3.961  0.00  0.00     0.016 C 
HETATM   28  C   UNK N   1      33.860  14.182   5.034  0.00  0.00     0.084 C 
HETATM   29  C   UNK N   1      32.610  13.507   5.607  0.00  0.00     0.016 C 
HETATM   30  C   UNK N   1      31.387  14.418   5.668  0.00  0.00     0.013 C 
BRANCH  28  31
HETATM   31  C   UNK N   1      34.741  14.709   6.137  0.00  0.00     0.143 C 
HETATM   32  O   UNK N   1      35.629  15.514   5.898  0.00  0.00    -0.650 OA
BRANCH  31  33
HETATM   33  O   UNK N   1      34.567  14.269   7.398  0.00  0.00    -0.776 OA
HETATM   34  H   UNK N   1      33.764  14.439   7.850  0.00  0.00     0.167 HD
ENDBRANCH  31  33
ENDBRANCH  28  31
ENDBRANCH   4  25
BRANCH   7  35
HETATM   35  N   UNK N   1      27.259  19.462   7.747  0.00  0.00    -0.383 N 
HETATM   36  H   UNK N   1      26.844  19.599   6.864  0.00  0.00     0.157 HD
HETATM   37  H   UNK N   1      26.781  19.765   8.552  0.00  0.00     0.157 HD
ENDBRANCH   7  35
TORSDOF 6
ENDMDL
MODEL 6
REMARK VINA RESULT:      -7.2      1.995      7.841
REMARK  6 active torsions:
REMARK  status: ('A' for Active; 'I' for Inactive)
REMARK    1  A    between atoms: O_2  and  C_3 
REMARK    2  A    between atoms: C_6  and  C_12 
REMARK    3  A    between atoms: C_25  and  C_15 
REMARK    4  A    between atoms: C_18  and  N_24 
REMARK    5  A    between atoms: C_28  and  C_31 
REMARK    6  A    between atoms: C_31  and  O_33 
ROOT
HETATM    1  C   UNK N   1      34.508  14.422  10.487  0.00  0.00     0.093 A 
HETATM    2  N   UNK N   1      34.249  14.118  11.773  0.00  0.00    -0.340 N 
ATOM      3  HN  UNK N   1      33.363  14.233  12.265  1.00  0.00     0.167 HD
HETATM    4  C   UNK N   1      35.401  13.631  12.277  0.00  0.00     0.109 A 
HETATM    5  N   UNK N   1      36.385  13.656  11.351  0.00  0.00    -0.237 N 
HETATM    6  C   UNK N   1      35.850  14.152  10.228  0.00  0.00     0.130 A 
HETATM    7  C   UNK N   1      36.647  14.258   9.082  0.00  0.00     0.131 A 
HETATM    8  N   UNK N   1      37.942  13.844   9.164  0.00  0.00    -0.336 N 
ATOM      9  HN  UNK N   1      38.547  13.920   8.346  1.00  0.00     0.168 HD
HETATM   10  C   UNK N   1      38.443  13.328  10.327  0.00  0.00     0.199 A 
HETATM   11  N   UNK N   1      37.646  13.233  11.431  0.00  0.00    -0.288 N 
ATOM     12  HN  UNK N   1      38.009  12.847  12.302  1.00  0.00     0.188 HD
ENDROOT
BRANCH   1  13
HETATM   13  C   UNK N   1      33.420  14.740   9.564  0.00  0.00     0.063 A 
HETATM   14  N   UNK N   1      32.831  15.951   9.509  0.00  0.00    -0.351 N 
HETATM   15  C   UNK N   1      32.140  15.958   8.365  0.00  0.00     0.076 A 
HETATM   16  H   UNK N   1      32.897  16.678  10.171  0.00  0.00     0.166 HD
HETATM   17  C   UNK N   1      31.423  17.023   7.841  0.00  0.00     0.095 A 
HETATM   18  C   UNK N   1      32.270  14.770   7.704  0.00  0.00    -0.004 A 
HETATM   19  C   UNK N   1      30.806  16.838   6.583  0.00  0.00     0.039 A 
HETATM   20  C   UNK N   1      30.931  15.604   5.903  0.00  0.00     0.004 A 
HETATM   21  C   UNK N   1      31.678  14.552   6.465  0.00  0.00     0.014 A 
HETATM   22  C   UNK N   1      33.100  13.966   8.447  0.00  0.00     0.045 A 
BRANCH  17  23
HETATM   23  O   UNK N   1      31.365  18.191   8.524  0.00  0.00    -0.354 OA
HETATM   24  C   UNK N   1      30.234  18.628   9.171  0.00  0.00     0.210 C 
ENDBRANCH  17  23
ENDBRANCH   1  13
BRANCH   4  25
HETATM   25  C   UNK N   1      35.426  13.040  13.655  0.00  0.00     0.055 C 
HETATM   26  C   UNK N   1      36.799  12.701  14.237  0.00  0.00     0.013 C 
HETATM   27  C   UNK N   1      36.711  11.754  15.458  0.00  0.00     0.016 C 
HETATM   28  C   UNK N   1      35.291  11.596  16.050  0.00  0.00     0.084 C 
HETATM   29  C   UNK N   1      34.272  11.200  14.976  0.00  0.00     0.016 C 
HETATM   30  C   UNK N   1      34.574  11.773  13.594  0.00  0.00     0.013 C 
BRANCH  28  31
HETATM   31  C   UNK N   1      34.815  12.796  16.827  0.00  0.00     0.143 C 
HETATM   32  O   UNK N   1      33.904  13.493  16.406  0.00  0.00    -0.650 OA
BRANCH  31  33
HETATM   33  O   UNK N   1      35.417  13.122  17.987  0.00  0.00    -0.776 OA
HETATM   34  H   UNK N   1      35.806  12.457  18.519  0.00  0.00     0.167 HD
ENDBRANCH  31  33
ENDBRANCH  28  31
ENDBRANCH   4  25
BRANCH   7  35
HETATM   35  N   UNK N   1      36.163  14.799   7.875  0.00  0.00    -0.383 N 
HETATM   36  H   UNK N   1      36.760  15.233   7.224  0.00  0.00     0.157 HD
HETATM   37  H   UNK N   1      35.201  14.740   7.675  0.00  0.00     0.157 HD
ENDBRANCH   7  35
TORSDOF 6
ENDMDL
MODEL 7
REMARK VINA RESULT:      -7.2      9.352     12.736
REMARK  6 active torsions:
REMARK  status: ('A' for Active; 'I' for Inactive)
REMARK    1  A    between atoms: O_2  and  C_3 
REMARK    2  A    between atoms: C_6  and  C_12 
REMARK    3  A    between atoms: C_25  and  C_15 
REMARK    4  A    between atoms: C_18  and  N_24 
REMARK    5  A    between atoms: C_28  and  C_31 
REMARK    6  A    between atoms: C_31  and  O_33 
ROOT
HETATM    1  C   UNK N   1      25.752  17.532   4.936  0.00  0.00     0.093 A 
HETATM    2  N   UNK N   1      25.017  18.597   4.563  0.00  0.00    -0.340 N 
ATOM      3  HN  UNK N   1      25.258  19.581   4.679  1.00  0.00     0.167 HD
HETATM    4  C   UNK N   1      23.898  18.094   4.005  0.00  0.00     0.109 A 
HETATM    5  N   UNK N   1      23.895  16.744   4.051  0.00  0.00    -0.237 N 
HETATM    6  C   UNK N   1      25.042  16.373   4.635  0.00  0.00     0.130 A 
HETATM    7  C   UNK N   1      25.321  15.009   4.783  0.00  0.00     0.131 A 
HETATM    8  N   UNK N   1      24.405  14.115   4.317  0.00  0.00    -0.336 N 
ATOM      9  HN  UNK N   1      24.579  13.115   4.422  1.00  0.00     0.168 HD
HETATM   10  C   UNK N   1      23.254  14.538   3.712  0.00  0.00     0.199 A 
HETATM   11  N   UNK N   1      23.004  15.873   3.579  0.00  0.00    -0.288 N 
ATOM     12  HN  UNK N   1      22.151  16.199   3.126  1.00  0.00     0.188 HD
ENDROOT
BRANCH   1  13
HETATM   13  C   UNK N   1      27.144  17.698   5.350  0.00  0.00     0.063 A 
HETATM   14  N   UNK N   1      27.531  17.724   6.641  0.00  0.00    -0.351 N 
HETATM   15  C   UNK N   1      28.858  17.562   6.618  0.00  0.00     0.076 A 
HETATM   16  H   UNK N   1      26.958  17.838   7.434  0.00  0.00     0.166 HD
HETATM   17  C   UNK N   1      29.694  17.453   7.719  0.00  0.00     0.095 A 
HETATM   18  C   UNK N   1      29.317  17.447   5.338  0.00  0.00    -0.004 A 
HETATM   19  C   UNK N   1      31.069  17.228   7.474  0.00  0.00     0.039 A 
HETATM   20  C   UNK N   1      31.547  17.120   6.147  0.00  0.00     0.004 A 
HETATM   21  C   UNK N   1      30.661  17.225   5.057  0.00  0.00     0.014 A 
HETATM   22  C   UNK N   1      28.234  17.519   4.496  0.00  0.00     0.045 A 
BRANCH  17  23
HETATM   23  O   UNK N   1      29.173  17.534   8.965  0.00  0.00    -0.354 OA
HETATM   24  C   UNK N   1      29.546  18.494   9.875  0.00  0.00     0.210 C 
ENDBRANCH  17  23
ENDBRANCH   1  13
BRANCH   4  25
HETATM   25  C   UNK N   1      22.921  19.011   3.329  0.00  0.00     0.055 C 
HETATM   26  C   UNK N   1      23.405  20.429   3.021  0.00  0.00     0.013 C 
HETATM   27  C   UNK N   1      22.241  21.398   2.700  0.00  0.00     0.016 C 
HETATM   28  C   UNK N   1      20.884  20.708   2.432  0.00  0.00     0.084 C 
HETATM   29  C   UNK N   1      20.502  19.752   3.567  0.00  0.00     0.016 C 
HETATM   30  C   UNK N   1      21.696  19.079   4.238  0.00  0.00     0.013 C 
BRANCH  28  31
HETATM   31  C   UNK N   1      20.801  20.017   1.096  0.00  0.00     0.143 C 
HETATM   32  O   UNK N   1      21.193  20.570   0.079  0.00  0.00    -0.650 OA
BRANCH  31  33
HETATM   33  O   UNK N   1      20.264  18.784   1.014  0.00  0.00    -0.776 OA
HETATM   34  H   UNK N   1      19.883  18.385   1.771  0.00  0.00     0.167 HD
ENDBRANCH  31  33
ENDBRANCH  28  31
ENDBRANCH   4  25
BRANCH   7  35
HETATM   35  N   UNK N   1      26.491  14.544   5.414  0.00  0.00    -0.383 N 
HETATM   36  H   UNK N   1      26.937  13.712   5.133  0.00  0.00     0.157 HD
HETATM   37  H   UNK N   1      26.875  15.064   6.156  0.00  0.00     0.157 HD
ENDBRANCH   7  35
TORSDOF 6
ENDMDL
MODEL 8
REMARK VINA RESULT:      -7.2     12.443     16.456
REMARK  6 active torsions:
REMARK  status: ('A' for Active; 'I' for Inactive)
REMARK    1  A    between atoms: O_2  and  C_3 
REMARK    2  A    between atoms: C_6  and  C_12 
REMARK    3  A    between atoms: C_25  and  C_15 
REMARK    4  A    between atoms: C_18  and  N_24 
REMARK    5  A    between atoms: C_28  and  C_31 
REMARK    6  A    between atoms: C_31  and  O_33 
ROOT
HETATM    1  C   UNK N   1      22.139  16.792   3.337  0.00  0.00     0.093 A 
HETATM    2  N   UNK N   1      23.349  17.065   3.862  0.00  0.00    -0.340 N 
ATOM      3  HN  UNK N   1      24.047  16.394   4.180  1.00  0.00     0.167 HD
HETATM    4  C   UNK N   1      23.447  18.410   3.882  0.00  0.00     0.109 A 
HETATM    5  N   UNK N   1      22.316  18.986   3.417  0.00  0.00    -0.237 N 
HETATM    6  C   UNK N   1      21.485  17.993   3.077  0.00  0.00     0.130 A 
HETATM    7  C   UNK N   1      20.237  18.307   2.527  0.00  0.00     0.131 A 
HETATM    8  N   UNK N   1      19.926  19.623   2.358  0.00  0.00    -0.336 N 
ATOM      9  HN  UNK N   1      19.018  19.879   1.969  1.00  0.00     0.168 HD
HETATM   10  C   UNK N   1      20.813  20.605   2.703  0.00  0.00     0.199 A 
HETATM   11  N   UNK N   1      22.024  20.274   3.237  0.00  0.00    -0.288 N 
ATOM     12  HN  UNK N   1      22.694  20.998   3.494  1.00  0.00     0.188 HD
ENDROOT
BRANCH   1  13
HETATM   13  C   UNK N   1      21.795  15.430   2.934  0.00  0.00     0.063 A 
HETATM   14  N   UNK N   1      21.104  14.581   3.721  0.00  0.00    -0.351 N 
HETATM   15  C   UNK N   1      20.710  13.590   2.915  0.00  0.00     0.076 A 
HETATM   16  H   UNK N   1      20.927  14.672   4.686  0.00  0.00     0.166 HD
HETATM   17  C   UNK N   1      19.907  12.515   3.263  0.00  0.00     0.095 A 
HETATM   18  C   UNK N   1      21.150  13.791   1.638  0.00  0.00    -0.004 A 
HETATM   19  C   UNK N   1      19.559  11.602   2.239  0.00  0.00     0.039 A 
HETATM   20  C   UNK N   1      20.024  11.803   0.918  0.00  0.00     0.004 A 
HETATM   21  C   UNK N   1      20.828  12.916   0.605  0.00  0.00     0.014 A 
HETATM   22  C   UNK N   1      21.844  14.975   1.615  0.00  0.00     0.045 A 
BRANCH  17  23
HETATM   23  O   UNK N   1      19.467  12.392   4.537  0.00  0.00    -0.354 OA
HETATM   24  C   UNK N   1      20.070  11.577   5.465  0.00  0.00     0.210 C 
ENDBRANCH  17  23
ENDBRANCH   1  13
BRANCH   4  25
HETATM   25  C   UNK N   1      24.744  19.062   4.260  0.00  0.00     0.055 C 
HETATM   26  C   UNK N   1      25.304  20.103   3.288  0.00  0.00     0.013 C 
HETATM   27  C   UNK N   1      26.796  20.419   3.550  0.00  0.00     0.016 C 
HETATM   28  C   UNK N   1      27.339  19.896   4.900  0.00  0.00     0.084 C 
HETATM   29  C   UNK N   1      27.056  18.400   5.081  0.00  0.00     0.016 C 
HETATM   30  C   UNK N   1      25.758  17.931   4.432  0.00  0.00     0.013 C 
BRANCH  28  31
HETATM   31  C   UNK N   1      26.865  20.681   6.096  0.00  0.00     0.143 C 
HETATM   32  O   UNK N   1      26.719  21.893   6.031  0.00  0.00    -0.650 OA
BRANCH  31  33
HETATM   33  O   UNK N   1      26.626  20.046   7.259  0.00  0.00    -0.776 OA
HETATM   34  H   UNK N   1      27.027  19.218   7.436  0.00  0.00     0.167 HD
ENDBRANCH  31  33
ENDBRANCH  28  31
ENDBRANCH   4  25
BRANCH   7  35
HETATM   35  N   UNK N   1      19.298  17.318   2.175  0.00  0.00    -0.383 N 
HETATM   36  H   UNK N   1      18.332  17.508   2.137  0.00  0.00     0.157 HD
HETATM   37  H   UNK N   1      19.615  16.411   1.960  0.00  0.00     0.157 HD
ENDBRANCH   7  35
TORSDOF 6
ENDMDL
MODEL 9
REMARK VINA RESULT:      -6.9      2.042      2.761
REMARK  6 active torsions:
REMARK  status: ('A' for Active; 'I' for Inactive)
REMARK    1  A    between atoms: O_2  and  C_3 
REMARK    2  A    between atoms: C_6  and  C_12 
REMARK    3  A    between atoms: C_25  and  C_15 
REMARK    4  A    between atoms: C_18  and  N_24 
REMARK    5  A    between atoms: C_28  and  C_31 
REMARK    6  A    between atoms: C_31  and  O_33 
ROOT
HETATM    1  C   UNK N   1      35.211  12.673  11.914  0.00  0.00     0.093 A 
HETATM    2  N   UNK N   1      34.351  13.423  11.198  0.00  0.00    -0.340 N 
ATOM      3  HN  UNK N   1      33.426  13.742  11.487  1.00  0.00     0.167 HD
HETATM    4  C   UNK N   1      34.963  13.664  10.021  0.00  0.00     0.109 A 
HETATM    5  N   UNK N   1      36.168  13.054   9.967  0.00  0.00    -0.237 N 
HETATM    6  C   UNK N   1      36.339  12.426  11.136  0.00  0.00     0.130 A 
HETATM    7  C   UNK N   1      37.533  11.733  11.370  0.00  0.00     0.131 A 
HETATM    8  N   UNK N   1      38.476  11.735  10.386  0.00  0.00    -0.336 N 
ATOM      9  HN  UNK N   1      39.350  11.229  10.526  1.00  0.00     0.168 HD
HETATM   10  C   UNK N   1      38.266  12.405   9.212  0.00  0.00     0.199 A 
HETATM   11  N   UNK N   1      37.094  13.074   9.008  0.00  0.00    -0.288 N 
ATOM     12  HN  UNK N   1      36.929  13.580   8.138  1.00  0.00     0.188 HD
ENDROOT
BRANCH   1  13
HETATM   13  C   UNK N   1      34.982  12.436  13.338  0.00  0.00     0.063 A 
HETATM   14  N   UNK N   1      34.934  11.203  13.881  0.00  0.00    -0.351 N 
HETATM   15  C   UNK N   1      35.037  11.392  15.200  0.00  0.00     0.076 A 
HETATM   16  H   UNK N   1      34.842  10.345  13.406  0.00  0.00     0.166 HD
HETATM   17  C   UNK N   1      35.106  10.404  16.171  0.00  0.00     0.095 A 
HETATM   18  C   UNK N   1      35.138  12.719  15.501  0.00  0.00    -0.004 A 
HETATM   19  C   UNK N   1      35.271  10.818  17.513  0.00  0.00     0.039 A 
HETATM   20  C   UNK N   1      35.362  12.195  17.827  0.00  0.00     0.004 A 
HETATM   21  C   UNK N   1      35.301  13.165  16.808  0.00  0.00     0.014 A 
HETATM   22  C   UNK N   1      35.116  13.420  14.319  0.00  0.00     0.045 A 
BRANCH  17  23
HETATM   23  O   UNK N   1      35.043   9.102  15.806  0.00  0.00    -0.354 OA
HETATM   24  C   UNK N   1      35.566   8.082  16.565  0.00  0.00     0.210 C 
ENDBRANCH  17  23
ENDBRANCH   1  13
BRANCH   4  25
HETATM   25  C   UNK N   1      34.347  14.613   9.036  0.00  0.00     0.055 C 
HETATM   26  C   UNK N   1      33.532  15.773   9.612  0.00  0.00     0.013 C 
HETATM   27  C   UNK N   1      32.628  16.448   8.553  0.00  0.00     0.016 C 
HETATM   28  C   UNK N   1      32.948  16.060   7.091  0.00  0.00     0.084 C 
HETATM   29  C   UNK N   1      32.970  14.539   6.902  0.00  0.00     0.016 C 
HETATM   30  C   UNK N   1      33.456  13.769   8.126  0.00  0.00     0.013 C 
BRANCH  28  31
HETATM   31  C   UNK N   1      34.208  16.688   6.553  0.00  0.00     0.143 C 
HETATM   32  O   UNK N   1      34.476  17.856   6.791  0.00  0.00    -0.650 OA
BRANCH  31  33
HETATM   33  O   UNK N   1      35.035  15.962   5.776  0.00  0.00    -0.776 OA
HETATM   34  H   UNK N   1      35.426  16.346   5.016  0.00  0.00     0.167 HD
ENDBRANCH  31  33
ENDBRANCH  28  31
ENDBRANCH   4  25
BRANCH   7  35
HETATM   35  N   UNK N   1      37.772  11.023  12.562  0.00  0.00    -0.383 N 
HETATM   36  H   UNK N   1      38.682  10.885  12.912  0.00  0.00     0.157 HD
HETATM   37  H   UNK N   1      37.007  10.653  13.061  0.00  0.00     0.157 HD
ENDBRANCH   7  35
TORSDOF 6
ENDMDL
