REMARK  5 active torsions:
REMARK  status: ('A' for Active; 'I' for Inactive)
REMARK    1  A    between atoms: C_2  and  C_3 
REMARK    2  A    between atoms: C_2  and  C_17 
REMARK    3  A    between atoms: C_7  and  O_15 
REMARK    4  A    between atoms: C_9  and  O_14 
REMARK    5  A    between atoms: C_17  and  O_19 
ROOT
HETATM    1  C   UNK N   1       0.142  -0.479   0.005  0.00  0.00     0.071 A 
HETATM    2  C   UNK N   1       1.330   0.245   0.017  0.00  0.00     0.046 A 
HETATM    3  C   UNK N   1       2.538  -0.422   0.003  0.00  0.00    -0.012 A 
HETATM    4  C   UNK N   1       3.720   0.313   0.013  0.00  0.00     0.049 A 
HETATM    5  C   UNK N   1       4.953  -0.331  -0.003  0.00  0.00     0.071 A 
HETATM    6  C   UNK N   1       4.997  -1.737  -0.029  0.00  0.00     0.074 A 
HETATM    7  C   UNK N   1       3.815  -2.490  -0.039  0.00  0.00     0.085 A 
HETATM    8  C   UNK N   1       2.562  -1.830  -0.022  0.00  0.00     0.083 A 
HETATM    9  C   UNK N   1       1.318  -2.508  -0.031  0.00  0.00     0.302 A 
HETATM   10  O   UNK N   1       1.270  -3.726  -0.052  0.00  0.00    -0.259 OA
HETATM   11  O   UNK N   1       0.177  -1.813  -0.017  0.00  0.00    -0.278 OA
ENDROOT
BRANCH   1  12
HETATM   12  C   UNK N   1      -1.180   0.246   0.012  0.00  0.00     0.137 C 
HETATM   13  C   UNK N   1      -2.460  -0.574  -0.010  0.00  0.00     0.028 C 
BRANCH  12  14
HETATM   14  C   UNK N   1      -1.284   1.757   0.006  0.00  0.00     0.149 C 
HETATM   15  O   UNK N   1      -2.381   2.291  -0.004  0.00  0.00    -0.649 OA
BRANCH  14  16
HETATM   16  O   UNK N   1      -0.179   2.528   0.010  0.00  0.00    -0.776 OA
HETATM   17  H   UNK N   1       0.669   2.131   0.013  0.00  0.00     0.167 HD
ENDBRANCH  14  16
ENDBRANCH  12  14
ENDBRANCH   1  12
BRANCH   5  18
HETATM   18  O   UNK N   1       6.078   0.422   0.006  0.00  0.00    -0.356 OA
HETATM   19  C   UNK N   1       7.345  -0.111  -0.011  0.00  0.00     0.210 C 
ENDBRANCH   5  18
BRANCH   7  20
HETATM   20  O   UNK N   1       3.898  -3.832  -0.065  0.00  0.00    -0.360 OA
HETATM   21  H   UNK N   1       3.117  -4.349  -0.083  0.00  0.00     0.217 HD
ENDBRANCH   7  20
TORSDOF 5
