MODEL 1
REMARK VINA RESULT:      -8.0      0.000      0.000
REMARK  6 active torsions:
REMARK  status: ('A' for Active; 'I' for Inactive)
REMARK    1  A    between atoms: C_4  and  C_7 
REMARK    2  A    between atoms: C_7  and  N_8 
REMARK    3  A    between atoms: N_8  and  C_9 
REMARK    4  A    between atoms: C_9  and  C_10 
REMARK    5  A    between atoms: C_10  and  C_11 
REMARK    6  A    between atoms: C_17  and  N_16 
ROOT
HETATM    1  C   UNK N   1      36.537  13.301  11.956  0.00  0.00     0.031 A 
HETATM    2  C   UNK N   1      37.459  12.286  12.124  0.00  0.00     0.116 A 
HETATM    3  N   UNK N   1      38.106  12.105  10.953  0.00  0.00    -0.341 N 
HETATM    4  C   UNK N   1      37.573  13.005  10.105  0.00  0.00     0.178 A 
HETATM    5  S   UNK N   1      38.017  13.140   8.743  0.00  0.00    -0.040 SA
HETATM    6  N   UNK N   1      36.606  13.759  10.684  0.00  0.00    -0.319 N 
HETATM    7  H   UNK N   1      38.817  11.452  10.759  0.00  0.00     0.167 HD
ENDROOT
BRANCH   6   8
HETATM    8  C   UNK N   1      35.851  14.849  10.029  0.00  0.00     0.121 C 
HETATM    9  C   UNK N   1      34.353  14.575  10.024  0.00  0.00     0.069 C 
HETATM   10  C   UNK N   1      33.725  15.604   9.149  0.00  0.00    -0.017 A 
HETATM   11  C   UNK N   1      32.671  15.268   8.299  0.00  0.00     0.052 A 
HETATM   12  C   UNK N   1      34.231  16.916   9.169  0.00  0.00     0.114 A 
HETATM   13  C   UNK N   1      32.107  16.242   7.473  0.00  0.00     0.120 A 
HETATM   14  C   UNK N   1      32.588  17.556   7.506  0.00  0.00     0.087 A 
HETATM   15  F   UNK N   1      31.098  15.912   6.631  0.00  0.00    -0.206 F 
HETATM   16  C   UNK N   1      33.648  17.896   8.355  0.00  0.00     0.153 A 
HETATM   17  F   UNK N   1      34.124  19.165   8.363  0.00  0.00    -0.203 F 
HETATM   18  O   UNK N   1      35.303  17.222   9.951  0.00  0.00    -0.345 OA
HETATM   19  C   UNK N   1      36.080  16.263  10.596  0.00  0.00     0.201 C 
ENDBRANCH   6   8
BRANCH   1  20
HETATM   20  C   UNK N   1      35.634  13.797  13.036  0.00  0.00     0.078 C 
BRANCH  20  21
HETATM   21  C   UNK N   1      36.436  14.592  14.049  0.00  0.00     0.120 C 
BRANCH  21  22
HETATM   22  N   UNK N   1      36.614  13.805  15.258  0.00  0.00    -0.417 N 
HETATM   23  H   UNK N   1      37.467  13.736  15.812  0.00  0.00     0.153 HD
BRANCH  22  24
HETATM   24  C   UNK N   1      35.354  13.132  15.534  0.00  0.00     0.152 C 
BRANCH  24  25
HETATM   25  C   UNK N   1      35.351  12.574  16.918  0.00  0.00    -0.041 A 
HETATM   26  C   UNK N   1      35.542  11.202  17.109  0.00  0.00     0.009 A 
HETATM   27  C   UNK N   1      35.531  10.666  18.401  0.00  0.00     0.001 A 
HETATM   28  C   UNK N   1      35.327  11.502  19.503  0.00  0.00     0.000 A 
HETATM   29  C   UNK N   1      35.133  12.874  19.314  0.00  0.00     0.001 A 
HETATM   30  C   UNK N   1      35.144  13.411  18.022  0.00  0.00     0.009 A 
ENDBRANCH  24  25
ENDBRANCH  22  24
ENDBRANCH  21  22
ENDBRANCH  20  21
ENDBRANCH   1  20
TORSDOF 6
ENDMDL
MODEL 2
REMARK VINA RESULT:      -7.3      8.043     11.537
REMARK  6 active torsions:
REMARK  status: ('A' for Active; 'I' for Inactive)
REMARK    1  A    between atoms: C_4  and  C_7 
REMARK    2  A    between atoms: C_7  and  N_8 
REMARK    3  A    between atoms: N_8  and  C_9 
REMARK    4  A    between atoms: C_9  and  C_10 
REMARK    5  A    between atoms: C_10  and  C_11 
REMARK    6  A    between atoms: C_17  and  N_16 
ROOT
HETATM    1  C   UNK N   1      31.125  16.658   6.887  0.00  0.00     0.031 A 
HETATM    2  C   UNK N   1      32.108  16.632   7.857  0.00  0.00     0.116 A 
HETATM    3  N   UNK N   1      31.673  17.345   8.919  0.00  0.00    -0.341 N 
HETATM    4  C   UNK N   1      30.446  17.782   8.578  0.00  0.00     0.178 A 
HETATM    5  S   UNK N   1      29.634  18.574   9.466  0.00  0.00    -0.040 SA
HETATM    6  N   UNK N   1      30.073  17.382   7.338  0.00  0.00    -0.319 N 
HETATM    7  H   UNK N   1      32.151  17.508   9.763  0.00  0.00     0.167 HD
ENDROOT
BRANCH   6   8
HETATM    8  C   UNK N   1      28.778  17.674   6.686  0.00  0.00     0.121 C 
HETATM    9  C   UNK N   1      28.954  18.057   5.223  0.00  0.00     0.069 C 
HETATM   10  C   UNK N   1      27.635  18.549   4.739  0.00  0.00    -0.017 A 
HETATM   11  C   UNK N   1      27.556  19.637   3.870  0.00  0.00     0.052 A 
HETATM   12  C   UNK N   1      26.463  17.919   5.198  0.00  0.00     0.114 A 
HETATM   13  C   UNK N   1      26.309  20.095   3.441  0.00  0.00     0.120 A 
HETATM   14  C   UNK N   1      25.140  19.457   3.872  0.00  0.00     0.087 A 
HETATM   15  F   UNK N   1      26.230  21.165   2.614  0.00  0.00    -0.206 F 
HETATM   16  C   UNK N   1      25.215  18.367   4.747  0.00  0.00     0.153 A 
HETATM   17  F   UNK N   1      24.077  17.770   5.179  0.00  0.00    -0.203 F 
HETATM   18  O   UNK N   1      26.544  16.901   6.098  0.00  0.00    -0.345 OA
HETATM   19  C   UNK N   1      27.716  16.561   6.769  0.00  0.00     0.201 C 
ENDBRANCH   6   8
BRANCH   1  20
HETATM   20  C   UNK N   1      31.236  15.972   5.567  0.00  0.00     0.078 C 
BRANCH  20  21
HETATM   21  C   UNK N   1      30.696  14.558   5.678  0.00  0.00     0.120 C 
BRANCH  21  22
HETATM   22  N   UNK N   1      30.097  14.163   4.413  0.00  0.00    -0.417 N 
HETATM   23  H   UNK N   1      30.484  14.332   3.484  0.00  0.00     0.153 HD
BRANCH  22  24
HETATM   24  C   UNK N   1      28.847  13.483   4.711  0.00  0.00     0.152 C 
BRANCH  24  25
HETATM   25  C   UNK N   1      27.710  14.139   4.001  0.00  0.00    -0.041 A 
HETATM   26  C   UNK N   1      27.973  15.046   2.970  0.00  0.00     0.009 A 
HETATM   27  C   UNK N   1      26.916  15.674   2.304  0.00  0.00     0.001 A 
HETATM   28  C   UNK N   1      25.595  15.398   2.671  0.00  0.00     0.000 A 
HETATM   29  C   UNK N   1      25.331  14.493   3.704  0.00  0.00     0.001 A 
HETATM   30  C   UNK N   1      26.387  13.864   4.371  0.00  0.00     0.009 A 
ENDBRANCH  24  25
ENDBRANCH  22  24
ENDBRANCH  21  22
ENDBRANCH  20  21
ENDBRANCH   1  20
TORSDOF 6
ENDMDL
MODEL 3
REMARK VINA RESULT:      -7.1     20.110     22.850
REMARK  6 active torsions:
REMARK  status: ('A' for Active; 'I' for Inactive)
REMARK    1  A    between atoms: C_4  and  C_7 
REMARK    2  A    between atoms: C_7  and  N_8 
REMARK    3  A    between atoms: N_8  and  C_9 
REMARK    4  A    between atoms: C_9  and  C_10 
REMARK    5  A    between atoms: C_10  and  C_11 
REMARK    6  A    between atoms: C_17  and  N_16 
ROOT
HETATM    1  C   UNK N   1      28.325  29.357  -4.123  0.00  0.00     0.031 A 
HETATM    2  C   UNK N   1      28.621  30.487  -3.387  0.00  0.00     0.116 A 
HETATM    3  N   UNK N   1      29.848  30.328  -2.844  0.00  0.00    -0.341 N 
HETATM    4  C   UNK N   1      30.269  29.118  -3.258  0.00  0.00     0.178 A 
HETATM    5  S   UNK N   1      31.558  28.585  -2.901  0.00  0.00    -0.040 SA
HETATM    6  N   UNK N   1      29.362  28.490  -4.045  0.00  0.00    -0.319 N 
HETATM    7  H   UNK N   1      30.332  30.963  -2.268  0.00  0.00     0.167 HD
ENDROOT
BRANCH   6   8
HETATM    8  C   UNK N   1      29.536  27.165  -4.678  0.00  0.00     0.121 C 
HETATM    9  C   UNK N   1      28.758  26.081  -3.946  0.00  0.00     0.069 C 
HETATM   10  C   UNK N   1      29.185  24.774  -4.518  0.00  0.00    -0.017 A 
HETATM   11  C   UNK N   1      29.358  23.660  -3.697  0.00  0.00     0.052 A 
HETATM   12  C   UNK N   1      29.443  24.687  -5.898  0.00  0.00     0.114 A 
HETATM   13  C   UNK N   1      29.777  22.448  -4.249  0.00  0.00     0.120 A 
HETATM   14  C   UNK N   1      30.011  22.347  -5.626  0.00  0.00     0.087 A 
HETATM   15  F   UNK N   1      29.967  21.371  -3.450  0.00  0.00    -0.206 F 
HETATM   16  C   UNK N   1      29.842  23.463  -6.452  0.00  0.00     0.153 A 
HETATM   17  F   UNK N   1      30.094  23.363  -7.780  0.00  0.00    -0.203 F 
HETATM   18  O   UNK N   1      29.337  25.794  -6.683  0.00  0.00    -0.345 OA
HETATM   19  C   UNK N   1      29.183  27.082  -6.176  0.00  0.00     0.201 C 
ENDBRANCH   6   8
BRANCH   1  20
HETATM   20  C   UNK N   1      27.055  29.163  -4.882  0.00  0.00     0.078 C 
BRANCH  20  21
HETATM   21  C   UNK N   1      25.937  28.798  -3.924  0.00  0.00     0.120 C 
BRANCH  21  22
HETATM   22  N   UNK N   1      25.509  27.430  -4.169  0.00  0.00    -0.417 N 
HETATM   23  H   UNK N   1      25.442  26.686  -3.474  0.00  0.00     0.153 HD
BRANCH  22  24
HETATM   24  C   UNK N   1      25.195  27.315  -5.584  0.00  0.00     0.152 C 
BRANCH  24  25
HETATM   25  C   UNK N   1      25.542  25.954  -6.089  0.00  0.00    -0.041 A 
HETATM   26  C   UNK N   1      25.539  24.869  -5.207  0.00  0.00     0.009 A 
HETATM   27  C   UNK N   1      25.872  23.591  -5.666  0.00  0.00     0.001 A 
HETATM   28  C   UNK N   1      26.211  23.398  -7.009  0.00  0.00     0.000 A 
HETATM   29  C   UNK N   1      26.216  24.482  -7.893  0.00  0.00     0.001 A 
HETATM   30  C   UNK N   1      25.883  25.760  -7.434  0.00  0.00     0.009 A 
ENDBRANCH  24  25
ENDBRANCH  22  24
ENDBRANCH  21  22
ENDBRANCH  20  21
ENDBRANCH   1  20
TORSDOF 6
ENDMDL
MODEL 4
REMARK VINA RESULT:      -7.0     12.879     15.742
REMARK  6 active torsions:
REMARK  status: ('A' for Active; 'I' for Inactive)
REMARK    1  A    between atoms: C_4  and  C_7 
REMARK    2  A    between atoms: C_7  and  N_8 
REMARK    3  A    between atoms: N_8  and  C_9 
REMARK    4  A    between atoms: C_9  and  C_10 
REMARK    5  A    between atoms: C_10  and  C_11 
REMARK    6  A    between atoms: C_17  and  N_16 
ROOT
HETATM    1  C   UNK N   1      23.225  14.757   6.750  0.00  0.00     0.031 A 
HETATM    2  C   UNK N   1      23.121  13.926   7.848  0.00  0.00     0.116 A 
HETATM    3  N   UNK N   1      21.992  14.250   8.517  0.00  0.00    -0.341 N 
HETATM    4  C   UNK N   1      21.438  15.258   7.818  0.00  0.00     0.178 A 
HETATM    5  S   UNK N   1      20.196  15.875   8.206  0.00  0.00    -0.040 SA
HETATM    6  N   UNK N   1      22.165  15.599   6.726  0.00  0.00    -0.319 N 
HETATM    7  H   UNK N   1      21.648  13.835   9.340  0.00  0.00     0.167 HD
ENDROOT
BRANCH   6   8
HETATM    8  C   UNK N   1      21.812  16.647   5.744  0.00  0.00     0.121 C 
HETATM    9  C   UNK N   1      20.724  16.181   4.786  0.00  0.00     0.069 C 
HETATM   10  C   UNK N   1      20.616  17.210   3.715  0.00  0.00    -0.017 A 
HETATM   11  C   UNK N   1      20.406  16.837   2.388  0.00  0.00     0.052 A 
HETATM   12  C   UNK N   1      20.761  18.567   4.058  0.00  0.00     0.114 A 
HETATM   13  C   UNK N   1      20.325  17.815   1.395  0.00  0.00     0.120 A 
HETATM   14  C   UNK N   1      20.442  19.169   1.732  0.00  0.00     0.087 A 
HETATM   15  F   UNK N   1      20.143  17.453   0.103  0.00  0.00    -0.206 F 
HETATM   16  C   UNK N   1      20.657  19.547   3.062  0.00  0.00     0.153 A 
HETATM   17  F   UNK N   1      20.794  20.858   3.376  0.00  0.00    -0.203 F 
HETATM   18  O   UNK N   1      21.033  18.921   5.343  0.00  0.00    -0.345 OA
HETATM   19  C   UNK N   1      21.386  18.006   6.333  0.00  0.00     0.201 C 
ENDBRANCH   6   8
BRANCH   1  20
HETATM   20  C   UNK N   1      24.340  14.697   5.760  0.00  0.00     0.078 C 
BRANCH  20  21
HETATM   21  C   UNK N   1      25.597  15.291   6.368  0.00  0.00     0.120 C 
BRANCH  21  22
HETATM   22  N   UNK N   1      25.605  16.731   6.163  0.00  0.00    -0.417 N 
HETATM   23  H   UNK N   1      25.126  17.424   6.737  0.00  0.00     0.153 HD
BRANCH  22  24
HETATM   24  C   UNK N   1      26.422  17.004   4.991  0.00  0.00     0.152 C 
BRANCH  24  25
HETATM   25  C   UNK N   1      25.965  18.252   4.312  0.00  0.00    -0.041 A 
HETATM   26  C   UNK N   1      26.906  19.212   3.928  0.00  0.00     0.009 A 
HETATM   27  C   UNK N   1      26.489  20.390   3.300  0.00  0.00     0.001 A 
HETATM   28  C   UNK N   1      25.129  20.609   3.058  0.00  0.00     0.000 A 
HETATM   29  C   UNK N   1      24.187  19.651   3.443  0.00  0.00     0.001 A 
HETATM   30  C   UNK N   1      24.603  18.472   4.072  0.00  0.00     0.009 A 
ENDBRANCH  24  25
ENDBRANCH  22  24
ENDBRANCH  21  22
ENDBRANCH  20  21
ENDBRANCH   1  20
TORSDOF 6
ENDMDL
MODEL 5
REMARK VINA RESULT:      -6.9     12.298     14.456
REMARK  6 active torsions:
REMARK  status: ('A' for Active; 'I' for Inactive)
REMARK    1  A    between atoms: C_4  and  C_7 
REMARK    2  A    between atoms: C_7  and  N_8 
REMARK    3  A    between atoms: N_8  and  C_9 
REMARK    4  A    between atoms: C_9  and  C_10 
REMARK    5  A    between atoms: C_10  and  C_11 
REMARK    6  A    between atoms: C_17  and  N_16 
ROOT
HETATM    1  C   UNK N   1      20.770  16.352   5.643  0.00  0.00     0.031 A 
HETATM    2  C   UNK N   1      19.490  15.926   5.346  0.00  0.00     0.116 A 
HETATM    3  N   UNK N   1      19.160  16.397   4.124  0.00  0.00    -0.341 N 
HETATM    4  C   UNK N   1      20.236  17.090   3.705  0.00  0.00     0.178 A 
HETATM    5  S   UNK N   1      20.284  17.739   2.421  0.00  0.00    -0.040 SA
HETATM    6  N   UNK N   1      21.245  17.087   4.610  0.00  0.00    -0.319 N 
HETATM    7  H   UNK N   1      18.313  16.261   3.641  0.00  0.00     0.167 HD
ENDROOT
BRANCH   6   8
HETATM    8  C   UNK N   1      22.564  17.733   4.437  0.00  0.00     0.121 C 
HETATM    9  C   UNK N   1      23.546  16.830   3.704  0.00  0.00     0.069 C 
HETATM   10  C   UNK N   1      24.884  17.477   3.791  0.00  0.00    -0.017 A 
HETATM   11  C   UNK N   1      26.033  16.711   3.989  0.00  0.00     0.052 A 
HETATM   12  C   UNK N   1      24.969  18.878   3.704  0.00  0.00     0.114 A 
HETATM   13  C   UNK N   1      27.277  17.338   4.087  0.00  0.00     0.120 A 
HETATM   14  C   UNK N   1      27.373  18.730   3.975  0.00  0.00     0.087 A 
HETATM   15  F   UNK N   1      28.391  16.598   4.301  0.00  0.00    -0.206 F 
HETATM   16  C   UNK N   1      26.222  19.501   3.780  0.00  0.00     0.153 A 
HETATM   17  F   UNK N   1      26.321  20.850   3.697  0.00  0.00    -0.203 F 
HETATM   18  O   UNK N   1      23.838  19.624   3.579  0.00  0.00    -0.345 OA
HETATM   19  C   UNK N   1      22.555  19.105   3.736  0.00  0.00     0.201 C 
ENDBRANCH   6   8
BRANCH   1  20
HETATM   20  C   UNK N   1      21.488  16.023   6.909  0.00  0.00     0.078 C 
BRANCH  20  21
HETATM   21  C   UNK N   1      20.613  16.369   8.098  0.00  0.00     0.120 C 
BRANCH  21  22
HETATM   22  N   UNK N   1      20.763  15.354   9.128  0.00  0.00    -0.417 N 
HETATM   23  H   UNK N   1      20.466  15.434  10.101  0.00  0.00     0.153 HD
BRANCH  22  24
HETATM   24  C   UNK N   1      21.416  14.205   8.522  0.00  0.00     0.152 C 
BRANCH  24  25
HETATM   25  C   UNK N   1      22.096  13.378   9.561  0.00  0.00    -0.041 A 
HETATM   26  C   UNK N   1      23.474  13.159   9.476  0.00  0.00     0.009 A 
HETATM   27  C   UNK N   1      24.121  12.378  10.439  0.00  0.00     0.001 A 
HETATM   28  C   UNK N   1      23.388  11.814  11.488  0.00  0.00     0.000 A 
HETATM   29  C   UNK N   1      22.010  12.030  11.574  0.00  0.00     0.001 A 
HETATM   30  C   UNK N   1      21.362  12.811  10.611  0.00  0.00     0.009 A 
ENDBRANCH  24  25
ENDBRANCH  22  24
ENDBRANCH  21  22
ENDBRANCH  20  21
ENDBRANCH   1  20
TORSDOF 6
ENDMDL
MODEL 6
REMARK VINA RESULT:      -6.9     18.498     20.974
REMARK  6 active torsions:
REMARK  status: ('A' for Active; 'I' for Inactive)
REMARK    1  A    between atoms: C_4  and  C_7 
REMARK    2  A    between atoms: C_7  and  N_8 
REMARK    3  A    between atoms: N_8  and  C_9 
REMARK    4  A    between atoms: C_9  and  C_10 
REMARK    5  A    between atoms: C_10  and  C_11 
REMARK    6  A    between atoms: C_17  and  N_16 
ROOT
HETATM    1  C   UNK N   1      31.576  20.511  -4.886  0.00  0.00     0.031 A 
HETATM    2  C   UNK N   1      32.907  20.141  -4.911  0.00  0.00     0.116 A 
HETATM    3  N   UNK N   1      33.235  19.831  -6.184  0.00  0.00    -0.341 N 
HETATM    4  C   UNK N   1      32.111  20.019  -6.901  0.00  0.00     0.178 A 
HETATM    5  S   UNK N   1      32.059  19.809  -8.324  0.00  0.00    -0.040 SA
HETATM    6  N   UNK N   1      31.070  20.436  -6.140  0.00  0.00    -0.319 N 
HETATM    7  H   UNK N   1      34.112  19.532  -6.517  0.00  0.00     0.167 HD
ENDROOT
BRANCH   6   8
HETATM    8  C   UNK N   1      29.712  20.755  -6.632  0.00  0.00     0.121 C 
HETATM    9  C   UNK N   1      29.600  22.203  -7.087  0.00  0.00     0.069 C 
HETATM   10  C   UNK N   1      28.157  22.472  -7.338  0.00  0.00    -0.017 A 
HETATM   11  C   UNK N   1      27.589  23.696  -6.983  0.00  0.00     0.052 A 
HETATM   12  C   UNK N   1      27.365  21.460  -7.910  0.00  0.00     0.114 A 
HETATM   13  C   UNK N   1      26.230  23.923  -7.209  0.00  0.00     0.120 A 
HETATM   14  C   UNK N   1      25.441  22.929  -7.801  0.00  0.00     0.087 A 
HETATM   15  F   UNK N   1      25.672  25.102  -6.845  0.00  0.00    -0.206 F 
HETATM   16  C   UNK N   1      26.007  21.699  -8.155  0.00  0.00     0.153 A 
HETATM   17  F   UNK N   1      25.231  20.734  -8.706  0.00  0.00    -0.203 F 
HETATM   18  O   UNK N   1      27.910  20.245  -8.191  0.00  0.00    -0.345 OA
HETATM   19  C   UNK N   1      29.175  19.853  -7.760  0.00  0.00     0.201 C 
ENDBRANCH   6   8
BRANCH   1  20
HETATM   20  C   UNK N   1      30.848  20.932  -3.654  0.00  0.00     0.078 C 
BRANCH  20  21
HETATM   21  C   UNK N   1      31.670  21.961  -2.901  0.00  0.00     0.120 C 
BRANCH  21  22
HETATM   22  N   UNK N   1      30.825  23.084  -2.528  0.00  0.00    -0.417 N 
HETATM   23  H   UNK N   1      30.426  23.258  -1.606  0.00  0.00     0.153 HD
BRANCH  22  24
HETATM   24  C   UNK N   1      30.651  23.915  -3.709  0.00  0.00     0.152 C 
BRANCH  24  25
HETATM   25  C   UNK N   1      29.279  24.501  -3.741  0.00  0.00    -0.041 A 
HETATM   26  C   UNK N   1      28.194  23.739  -3.298  0.00  0.00     0.009 A 
HETATM   27  C   UNK N   1      26.902  24.274  -3.332  0.00  0.00     0.001 A 
HETATM   28  C   UNK N   1      26.695  25.571  -3.811  0.00  0.00     0.000 A 
HETATM   29  C   UNK N   1      27.779  26.334  -4.257  0.00  0.00     0.001 A 
HETATM   30  C   UNK N   1      29.071  25.800  -4.223  0.00  0.00     0.009 A 
ENDBRANCH  24  25
ENDBRANCH  22  24
ENDBRANCH  21  22
ENDBRANCH  20  21
ENDBRANCH   1  20
TORSDOF 6
ENDMDL
MODEL 7
REMARK VINA RESULT:      -6.9     19.288     22.536
REMARK  6 active torsions:
REMARK  status: ('A' for Active; 'I' for Inactive)
REMARK    1  A    between atoms: C_4  and  C_7 
REMARK    2  A    between atoms: C_7  and  N_8 
REMARK    3  A    between atoms: N_8  and  C_9 
REMARK    4  A    between atoms: C_9  and  C_10 
REMARK    5  A    between atoms: C_10  and  C_11 
REMARK    6  A    between atoms: C_17  and  N_16 
ROOT
HETATM    1  C   UNK N   1      27.046  21.481  -9.228  0.00  0.00     0.031 A 
HETATM    2  C   UNK N   1      26.699  21.806 -10.525  0.00  0.00     0.116 A 
HETATM    3  N   UNK N   1      27.817  22.191 -11.178  0.00  0.00    -0.341 N 
HETATM    4  C   UNK N   1      28.811  22.091 -10.276  0.00  0.00     0.178 A 
HETATM    5  S   UNK N   1      30.180  22.401 -10.598  0.00  0.00    -0.040 SA
HETATM    6  N   UNK N   1      28.378  21.659  -9.066  0.00  0.00    -0.319 N 
HETATM    7  H   UNK N   1      27.889  22.482 -12.116  0.00  0.00     0.167 HD
ENDROOT
BRANCH   6   8
HETATM    8  C   UNK N   1      29.226  21.422  -7.878  0.00  0.00     0.121 C 
HETATM    9  C   UNK N   1      28.650  22.077  -6.631  0.00  0.00     0.069 C 
HETATM   10  C   UNK N   1      29.685  21.974  -5.565  0.00  0.00    -0.017 A 
HETATM   11  C   UNK N   1      29.899  23.029  -4.678  0.00  0.00     0.052 A 
HETATM   12  C   UNK N   1      30.467  20.808  -5.486  0.00  0.00     0.114 A 
HETATM   13  C   UNK N   1      30.887  22.921  -3.696  0.00  0.00     0.120 A 
HETATM   14  C   UNK N   1      31.652  21.753  -3.595  0.00  0.00     0.087 A 
HETATM   15  F   UNK N   1      31.112  23.952  -2.848  0.00  0.00    -0.206 F 
HETATM   16  C   UNK N   1      31.442  20.695  -4.486  0.00  0.00     0.153 A 
HETATM   17  F   UNK N   1      32.203  19.577  -4.397  0.00  0.00    -0.203 F 
HETATM   18  O   UNK N   1      30.298  19.811  -6.397  0.00  0.00    -0.345 OA
HETATM   19  C   UNK N   1      29.529  19.947  -7.550  0.00  0.00     0.201 C 
ENDBRANCH   6   8
BRANCH   1  20
HETATM   20  C   UNK N   1      26.078  21.001  -8.199  0.00  0.00     0.078 C 
BRANCH  20  21
HETATM   21  C   UNK N   1      24.963  22.016  -8.033  0.00  0.00     0.120 C 
BRANCH  21  22
HETATM   22  N   UNK N   1      25.167  22.770  -6.806  0.00  0.00    -0.417 N 
HETATM   23  H   UNK N   1      25.056  22.416  -5.856  0.00  0.00     0.153 HD
BRANCH  22  24
HETATM   24  C   UNK N   1      25.558  24.120  -7.179  0.00  0.00     0.152 C 
BRANCH  24  25
HETATM   25  C   UNK N   1      25.794  24.953  -5.964  0.00  0.00    -0.041 A 
HETATM   26  C   UNK N   1      25.401  26.295  -5.961  0.00  0.00     0.009 A 
HETATM   27  C   UNK N   1      25.625  27.088  -4.830  0.00  0.00     0.001 A 
HETATM   28  C   UNK N   1      26.244  26.539  -3.703  0.00  0.00     0.000 A 
HETATM   29  C   UNK N   1      26.639  25.198  -3.705  0.00  0.00     0.001 A 
HETATM   30  C   UNK N   1      26.416  24.404  -4.835  0.00  0.00     0.009 A 
ENDBRANCH  24  25
ENDBRANCH  22  24
ENDBRANCH  21  22
ENDBRANCH  20  21
ENDBRANCH   1  20
TORSDOF 6
ENDMDL
MODEL 8
REMARK VINA RESULT:      -6.9      4.038      7.283
REMARK  6 active torsions:
REMARK  status: ('A' for Active; 'I' for Inactive)
REMARK    1  A    between atoms: C_4  and  C_7 
REMARK    2  A    between atoms: C_7  and  N_8 
REMARK    3  A    between atoms: N_8  and  C_9 
REMARK    4  A    between atoms: C_9  and  C_10 
REMARK    5  A    between atoms: C_10  and  C_11 
REMARK    6  A    between atoms: C_17  and  N_16 
ROOT
HETATM    1  C   UNK N   1      35.526  14.095  10.722  0.00  0.00     0.031 A 
HETATM    2  C   UNK N   1      35.368  13.575  11.992  0.00  0.00     0.116 A 
HETATM    3  N   UNK N   1      34.765  12.372  11.883  0.00  0.00    -0.341 N 
HETATM    4  C   UNK N   1      34.572  12.184  10.564  0.00  0.00     0.178 A 
HETATM    5  S   UNK N   1      33.962  10.992  10.034  0.00  0.00    -0.040 SA
HETATM    6  N   UNK N   1      35.025  13.221   9.817  0.00  0.00    -0.319 N 
HETATM    7  H   UNK N   1      34.519  11.760  12.614  0.00  0.00     0.167 HD
ENDROOT
BRANCH   6   8
HETATM    8  C   UNK N   1      34.985  13.307   8.341  0.00  0.00     0.121 C 
HETATM    9  C   UNK N   1      33.708  13.973   7.848  0.00  0.00     0.069 C 
HETATM   10  C   UNK N   1      33.667  13.798   6.370  0.00  0.00    -0.017 A 
HETATM   11  C   UNK N   1      32.465  13.524   5.718  0.00  0.00     0.052 A 
HETATM   12  C   UNK N   1      34.868  13.882   5.641  0.00  0.00     0.114 A 
HETATM   13  C   UNK N   1      32.449  13.345   4.333  0.00  0.00     0.120 A 
HETATM   14  C   UNK N   1      33.636  13.452   3.598  0.00  0.00     0.087 A 
HETATM   15  F   UNK N   1      31.286  13.057   3.702  0.00  0.00    -0.206 F 
HETATM   16  C   UNK N   1      34.845  13.723   4.249  0.00  0.00     0.153 A 
HETATM   17  F   UNK N   1      35.993  13.801   3.533  0.00  0.00    -0.203 F 
HETATM   18  O   UNK N   1      36.047  14.082   6.290  0.00  0.00    -0.345 OA
HETATM   19  C   UNK N   1      36.183  14.009   7.674  0.00  0.00     0.201 C 
ENDBRANCH   6   8
BRANCH   1  20
HETATM   20  C   UNK N   1      36.164  15.412  10.431  0.00  0.00     0.078 C 
BRANCH  20  21
HETATM   21  C   UNK N   1      35.248  16.535  10.879  0.00  0.00     0.120 C 
BRANCH  21  22
HETATM   22  N   UNK N   1      34.126  16.646   9.960  0.00  0.00    -0.417 N 
HETATM   23  H   UNK N   1      33.226  16.177  10.049  0.00  0.00     0.153 HD
BRANCH  22  24
HETATM   24  C   UNK N   1      34.522  17.550   8.891  0.00  0.00     0.152 C 
BRANCH  24  25
HETATM   25  C   UNK N   1      33.584  17.437   7.736  0.00  0.00    -0.041 A 
HETATM   26  C   UNK N   1      32.212  17.309   7.971  0.00  0.00     0.009 A 
HETATM   27  C   UNK N   1      31.324  17.193   6.896  0.00  0.00     0.001 A 
HETATM   28  C   UNK N   1      31.810  17.202   5.585  0.00  0.00     0.000 A 
HETATM   29  C   UNK N   1      33.182  17.327   5.348  0.00  0.00     0.001 A 
HETATM   30  C   UNK N   1      34.070  17.444   6.422  0.00  0.00     0.009 A 
ENDBRANCH  24  25
ENDBRANCH  22  24
ENDBRANCH  21  22
ENDBRANCH  20  21
ENDBRANCH   1  20
TORSDOF 6
ENDMDL
MODEL 9
REMARK VINA RESULT:      -6.8     12.432     14.477
REMARK  6 active torsions:
REMARK  status: ('A' for Active; 'I' for Inactive)
REMARK    1  A    between atoms: C_4  and  C_7 
REMARK    2  A    between atoms: C_7  and  N_8 
REMARK    3  A    between atoms: N_8  and  C_9 
REMARK    4  A    between atoms: C_9  and  C_10 
REMARK    5  A    between atoms: C_10  and  C_11 
REMARK    6  A    between atoms: C_17  and  N_16 
ROOT
HETATM    1  C   UNK N   1      21.015  16.129   4.546  0.00  0.00     0.031 A 
HETATM    2  C   UNK N   1      19.662  16.235   4.289  0.00  0.00     0.116 A 
HETATM    3  N   UNK N   1      19.468  17.297   3.478  0.00  0.00    -0.341 N 
HETATM    4  C   UNK N   1      20.693  17.809   3.257  0.00  0.00     0.178 A 
HETATM    5  S   UNK N   1      20.910  18.956   2.415  0.00  0.00    -0.040 SA
HETATM    6  N   UNK N   1      21.670  17.120   3.896  0.00  0.00    -0.319 N 
HETATM    7  H   UNK N   1      18.611  17.626   3.123  0.00  0.00     0.167 HD
ENDROOT
BRANCH   6   8
HETATM    8  C   UNK N   1      23.118  17.414   3.834  0.00  0.00     0.121 C 
HETATM    9  C   UNK N   1      23.593  18.186   5.057  0.00  0.00     0.069 C 
HETATM   10  C   UNK N   1      24.990  18.623   4.783  0.00  0.00    -0.017 A 
HETATM   11  C   UNK N   1      25.433  19.883   5.185  0.00  0.00     0.052 A 
HETATM   12  C   UNK N   1      25.849  17.757   4.082  0.00  0.00     0.114 A 
HETATM   13  C   UNK N   1      26.741  20.282   4.903  0.00  0.00     0.120 A 
HETATM   14  C   UNK N   1      27.610  19.417   4.228  0.00  0.00     0.087 A 
HETATM   15  F   UNK N   1      27.166  21.514   5.273  0.00  0.00    -0.206 F 
HETATM   16  C   UNK N   1      27.167  18.153   3.820  0.00  0.00     0.153 A 
HETATM   17  F   UNK N   1      28.008  17.330   3.147  0.00  0.00    -0.203 F 
HETATM   18  O   UNK N   1      25.391  16.557   3.633  0.00  0.00    -0.345 OA
HETATM   19  C   UNK N   1      24.045  16.198   3.642  0.00  0.00     0.201 C 
ENDBRANCH   6   8
BRANCH   1  20
HETATM   20  C   UNK N   1      21.624  15.068   5.400  0.00  0.00     0.078 C 
BRANCH  20  21
HETATM   21  C   UNK N   1      21.042  15.140   6.798  0.00  0.00     0.120 C 
BRANCH  21  22
HETATM   22  N   UNK N   1      20.696  13.803   7.253  0.00  0.00    -0.417 N 
HETATM   23  H   UNK N   1      19.770  13.483   7.536  0.00  0.00     0.153 HD
BRANCH  22  24
HETATM   24  C   UNK N   1      21.911  13.003   7.234  0.00  0.00     0.152 C 
BRANCH  24  25
HETATM   25  C   UNK N   1      22.351  12.683   8.623  0.00  0.00    -0.041 A 
HETATM   26  C   UNK N   1      21.407  12.642   9.653  0.00  0.00     0.009 A 
HETATM   27  C   UNK N   1      21.809  12.352  10.961  0.00  0.00     0.001 A 
HETATM   28  C   UNK N   1      23.156  12.105  11.240  0.00  0.00     0.000 A 
HETATM   29  C   UNK N   1      24.103  12.148  10.211  0.00  0.00     0.001 A 
HETATM   30  C   UNK N   1      23.702  12.438   8.903  0.00  0.00     0.009 A 
ENDBRANCH  24  25
ENDBRANCH  22  24
ENDBRANCH  21  22
ENDBRANCH  20  21
ENDBRANCH   1  20
TORSDOF 6
ENDMDL
