MODEL 1
REMARK VINA RESULT:      -7.5      0.000      0.000
REMARK  11 active torsions:
REMARK  status: ('A' for Active; 'I' for Inactive)
REMARK    1  A    between atoms: C_2  and  C_5 
REMARK    2  A    between atoms: C_5  and  N_6 
REMARK    3  A    between atoms: N_6  and  C_7 
REMARK    4  A    between atoms: C_7  and  C_8 
REMARK    5  A    between atoms: C_10  and  N_38 
REMARK    6  A    between atoms: C_13  and  O_14 
REMARK    7  A    between atoms: C_18  and  O_37 
REMARK    8  A    between atoms: C_19  and  O_36 
REMARK    9  A    between atoms: C_24  and  N_33 
REMARK   10  A    between atoms: C_25  and  O_32 
REMARK   11  A    between atoms: C_26  and  C_29 
REMARK       I    between atoms: C_29  and  N_31 
ROOT
HETATM    1  C   UNK N   1      33.793  16.275   7.582  0.00  0.00    -0.005 A 
HETATM    2  C   UNK N   1      33.735  15.052   6.922  0.00  0.00     0.041 A 
HETATM    3  C   UNK N   1      34.470  13.940   7.354  0.00  0.00     0.037 A 
HETATM    4  C   UNK N   1      35.287  14.091   8.512  0.00  0.00    -0.014 A 
HETATM    5  C   UNK N   1      35.342  15.333   9.199  0.00  0.00     0.057 A 
HETATM    6  C   UNK N   1      34.594  16.426   8.719  0.00  0.00     0.088 A 
HETATM    7  C   UNK N   1      36.094  15.429  10.488  0.00  0.00     0.194 C 
HETATM    8  O   UNK N   1      36.313  16.509  11.014  0.00  0.00    -0.287 OA
HETATM    9  C   UNK N   1      36.295  14.161  11.241  0.00  0.00     0.030 C 
HETATM   10  C   UNK N   1      36.409  14.101  12.589  0.00  0.00     0.096 C 
HETATM   11  C   UNK N   1      36.361  12.707  13.227  0.00  0.00     0.177 C 
HETATM   12  C   UNK N   1      35.138  11.950  12.642  0.00  0.00     0.075 C 
HETATM   13  C   UNK N   1      34.938  12.134  11.115  0.00  0.00     0.021 C 
HETATM   14  C   UNK N   1      36.144  12.850  10.523  0.00  0.00     0.030 C 
HETATM   15  C   UNK N   1      36.139  12.972   9.017  0.00  0.00     0.051 C 
HETATM   16  C   UNK N   1      35.119  10.463  13.083  0.00  0.00     0.286 C 
HETATM   17  C   UNK N   1      35.381  10.318  14.592  0.00  0.00     0.096 C 
HETATM   18  C   UNK N   1      35.865  11.339  15.367  0.00  0.00     0.112 C 
HETATM   19  C   UNK N   1      36.208  12.651  14.725  0.00  0.00     0.208 C 
HETATM   20  O   UNK N   1      36.351  13.655  15.404  0.00  0.00    -0.288 OA
ENDROOT
BRANCH   1  21
HETATM   21  C   UNK N   1      32.956  17.406   7.060  0.00  0.00     0.155 C 
BRANCH  21  22
HETATM   22  N   UNK N   1      32.018  17.932   8.055  0.00  0.00    -0.417 N 
HETATM   23  H   UNK N   1      32.100  18.849   8.493  0.00  0.00     0.153 HD
BRANCH  22  24
HETATM   24  C   UNK N   1      30.948  16.972   8.340  0.00  0.00     0.122 C 
BRANCH  24  25
HETATM   25  C   UNK N   1      29.708  17.616   8.955  0.00  0.00    -0.036 C 
HETATM   26  C   UNK N   1      30.069  19.030   9.355  0.00  0.00     0.016 C 
HETATM   27  C   UNK N   1      29.270  16.854  10.192  0.00  0.00     0.016 C 
HETATM   28  C   UNK N   1      28.562  17.679   7.963  0.00  0.00     0.016 C 
ENDBRANCH  24  25
ENDBRANCH  22  24
ENDBRANCH  21  22
ENDBRANCH   1  21
BRANCH   6  29
HETATM   29  O   UNK N   1      34.613  17.606   9.366  0.00  0.00    -0.359 OA
HETATM   30  H   UNK N   1      35.066  18.342   9.004  0.00  0.00     0.217 HD
ENDBRANCH   6  29
BRANCH   3  31
HETATM   31  N   UNK N   1      34.353  12.707   6.610  0.00  0.00    -0.389 N 
HETATM   32  C   UNK N   1      33.433  11.654   6.956  0.00  0.00     0.149 C 
HETATM   33  C   UNK N   1      35.166  12.494   5.437  0.00  0.00     0.149 C 
ENDBRANCH   3  31
BRANCH  10  34
HETATM   34  O   UNK N   1      36.446  15.223  13.337  0.00  0.00    -0.361 OA
HETATM   35  H   UNK N   1      35.721  15.458  13.882  0.00  0.00     0.217 HD
ENDBRANCH  10  34
BRANCH  11  36
HETATM   36  O   UNK N   1      37.535  12.023  12.882  0.00  0.00    -0.374 OA
HETATM   37  H   UNK N   1      38.352  11.879  12.380  0.00  0.00     0.211 HD
ENDBRANCH  11  36
BRANCH  16  38
HETATM   38  N   UNK N   1      35.992   9.621  12.228  0.00  0.00     0.091 N 
HETATM   39  C   UNK N   1      37.030   8.923  12.972  0.00  0.00     0.310 C 
HETATM   40  C   UNK N   1      35.184   8.550  11.661  0.00  0.00     0.310 C 
ENDBRANCH  16  38
BRANCH  18  41
HETATM   41  C   UNK N   1      36.043  11.171  16.852  0.00  0.00     0.255 C 
HETATM   42  O   UNK N   1      36.774  10.298  17.299  0.00  0.00    -0.268 OA
HETATM   43  N   UNK N   1      35.415  11.991  17.717  0.00  0.00    -0.366 N 
HETATM   44  H   UNK N   1      34.771  12.665  17.400  0.00  0.00     0.159 HD
HETATM   45  H   UNK N   1      35.603  11.916  18.680  0.00  0.00     0.159 HD
ENDBRANCH  18  41
BRANCH  17  46
HETATM   46  O   UNK N   1      35.071   9.133  15.161  0.00  0.00    -0.362 OA
HETATM   47  H   UNK N   1      34.940   8.357  14.652  0.00  0.00     0.217 HD
ENDBRANCH  17  46
TORSDOF 11
ENDMDL
MODEL 2
REMARK VINA RESULT:      -7.3      2.805      4.282
REMARK  11 active torsions:
REMARK  status: ('A' for Active; 'I' for Inactive)
REMARK    1  A    between atoms: C_2  and  C_5 
REMARK    2  A    between atoms: C_5  and  N_6 
REMARK    3  A    between atoms: N_6  and  C_7 
REMARK    4  A    between atoms: C_7  and  C_8 
REMARK    5  A    between atoms: C_10  and  N_38 
REMARK    6  A    between atoms: C_13  and  O_14 
REMARK    7  A    between atoms: C_18  and  O_37 
REMARK    8  A    between atoms: C_19  and  O_36 
REMARK    9  A    between atoms: C_24  and  N_33 
REMARK   10  A    between atoms: C_25  and  O_32 
REMARK   11  A    between atoms: C_26  and  C_29 
REMARK       I    between atoms: C_29  and  N_31 
ROOT
HETATM    1  C   UNK N   1      32.078  16.016   3.514  0.00  0.00    -0.005 A 
HETATM    2  C   UNK N   1      32.388  14.715   3.134  0.00  0.00     0.041 A 
HETATM    3  C   UNK N   1      33.416  13.988   3.748  0.00  0.00     0.037 A 
HETATM    4  C   UNK N   1      34.145  14.621   4.796  0.00  0.00    -0.014 A 
HETATM    5  C   UNK N   1      33.827  15.945   5.198  0.00  0.00     0.057 A 
HETATM    6  C   UNK N   1      32.792  16.641   4.542  0.00  0.00     0.088 A 
HETATM    7  C   UNK N   1      34.509  16.537   6.391  0.00  0.00     0.194 C 
HETATM    8  O   UNK N   1      34.396  17.722   6.661  0.00  0.00    -0.287 OA
HETATM    9  C   UNK N   1      35.071  15.580   7.382  0.00  0.00     0.030 C 
HETATM   10  C   UNK N   1      35.190  15.855   8.703  0.00  0.00     0.096 C 
HETATM   11  C   UNK N   1      35.552  14.684   9.625  0.00  0.00     0.177 C 
HETATM   12  C   UNK N   1      34.611  13.496   9.289  0.00  0.00     0.075 C 
HETATM   13  C   UNK N   1      34.375  13.272   7.772  0.00  0.00     0.021 C 
HETATM   14  C   UNK N   1      35.319  14.157   6.970  0.00  0.00     0.030 C 
HETATM   15  C   UNK N   1      35.287  13.936   5.476  0.00  0.00     0.051 C 
HETATM   16  C   UNK N   1      35.029  12.204  10.037  0.00  0.00     0.286 C 
HETATM   17  C   UNK N   1      35.313  12.477  11.523  0.00  0.00     0.096 C 
HETATM   18  C   UNK N   1      35.470  13.739  12.033  0.00  0.00     0.112 C 
HETATM   19  C   UNK N   1      35.413  14.919  11.107  0.00  0.00     0.208 C 
HETATM   20  O   UNK N   1      35.249  16.045  11.547  0.00  0.00    -0.288 OA
ENDROOT
BRANCH   1  21
HETATM   21  C   UNK N   1      30.948  16.713   2.814  0.00  0.00     0.155 C 
BRANCH  21  22
HETATM   22  N   UNK N   1      29.937  17.235   3.737  0.00  0.00    -0.417 N 
HETATM   23  H   UNK N   1      30.030  18.108   4.256  0.00  0.00     0.153 HD
BRANCH  22  24
HETATM   24  C   UNK N   1      28.777  16.344   3.819  0.00  0.00     0.122 C 
BRANCH  24  25
HETATM   25  C   UNK N   1      28.660  15.629   5.163  0.00  0.00    -0.036 C 
HETATM   26  C   UNK N   1      29.216  14.232   4.996  0.00  0.00     0.016 C 
HETATM   27  C   UNK N   1      27.208  15.530   5.589  0.00  0.00     0.016 C 
HETATM   28  C   UNK N   1      29.461  16.334   6.242  0.00  0.00     0.016 C 
ENDBRANCH  24  25
ENDBRANCH  22  24
ENDBRANCH  21  22
ENDBRANCH   1  21
BRANCH   6  29
HETATM   29  O   UNK N   1      32.457  17.888   4.921  0.00  0.00    -0.359 OA
HETATM   30  H   UNK N   1      31.845  18.391   4.421  0.00  0.00     0.217 HD
ENDBRANCH   6  29
BRANCH   3  31
HETATM   31  N   UNK N   1      33.674  12.641   3.291  0.00  0.00    -0.389 N 
HETATM   32  C   UNK N   1      34.575  12.327   2.211  0.00  0.00     0.149 C 
HETATM   33  C   UNK N   1      33.034  11.525   3.943  0.00  0.00     0.149 C 
ENDBRANCH   3  31
BRANCH  10  34
HETATM   34  O   UNK N   1      34.889  17.077   9.192  0.00  0.00    -0.361 OA
HETATM   35  H   UNK N   1      34.668  17.188  10.095  0.00  0.00     0.217 HD
ENDBRANCH  10  34
BRANCH  11  36
HETATM   36  O   UNK N   1      36.877  14.311   9.364  0.00  0.00    -0.374 OA
HETATM   37  H   UNK N   1      37.656  14.170   8.804  0.00  0.00     0.211 HD
ENDBRANCH  11  36
BRANCH  16  38
HETATM   38  N   UNK N   1      36.117  11.483   9.330  0.00  0.00     0.091 N 
HETATM   39  C   UNK N   1      37.302  11.276  10.150  0.00  0.00     0.310 C 
HETATM   40  C   UNK N   1      35.656  10.134   9.030  0.00  0.00     0.310 C 
ENDBRANCH  16  38
BRANCH  18  41
HETATM   41  C   UNK N   1      35.680  13.963  13.507  0.00  0.00     0.255 C 
HETATM   42  O   UNK N   1      34.915  13.478  14.327  0.00  0.00    -0.268 OA
HETATM   43  N   UNK N   1      36.727  14.686  13.950  0.00  0.00    -0.366 N 
HETATM   44  H   UNK N   1      37.330  15.144  13.320  0.00  0.00     0.159 HD
HETATM   45  H   UNK N   1      36.892  14.758  14.917  0.00  0.00     0.159 HD
ENDBRANCH  18  41
BRANCH  17  46
HETATM   46  O   UNK N   1      35.364  11.409  12.348  0.00  0.00    -0.362 OA
HETATM   47  H   UNK N   1      36.172  10.985  12.563  0.00  0.00     0.217 HD
ENDBRANCH  17  46
TORSDOF 11
ENDMDL
MODEL 3
REMARK VINA RESULT:      -7.2      7.365     11.794
REMARK  11 active torsions:
REMARK  status: ('A' for Active; 'I' for Inactive)
REMARK    1  A    between atoms: C_2  and  C_5 
REMARK    2  A    between atoms: C_5  and  N_6 
REMARK    3  A    between atoms: N_6  and  C_7 
REMARK    4  A    between atoms: C_7  and  C_8 
REMARK    5  A    between atoms: C_10  and  N_38 
REMARK    6  A    between atoms: C_13  and  O_14 
REMARK    7  A    between atoms: C_18  and  O_37 
REMARK    8  A    between atoms: C_19  and  O_36 
REMARK    9  A    between atoms: C_24  and  N_33 
REMARK   10  A    between atoms: C_25  and  O_32 
REMARK   11  A    between atoms: C_26  and  C_29 
REMARK       I    between atoms: C_29  and  N_31 
ROOT
HETATM    1  C   UNK N   1      21.626  15.599   3.875  0.00  0.00    -0.005 A 
HETATM    2  C   UNK N   1      22.149  14.615   3.043  0.00  0.00     0.041 A 
HETATM    3  C   UNK N   1      23.473  14.654   2.587  0.00  0.00     0.037 A 
HETATM    4  C   UNK N   1      24.291  15.742   3.011  0.00  0.00    -0.014 A 
HETATM    5  C   UNK N   1      23.769  16.745   3.871  0.00  0.00     0.057 A 
HETATM    6  C   UNK N   1      22.427  16.668   4.293  0.00  0.00     0.088 A 
HETATM    7  C   UNK N   1      24.682  17.797   4.414  0.00  0.00     0.194 C 
HETATM    8  O   UNK N   1      24.244  18.770   5.008  0.00  0.00    -0.287 OA
HETATM    9  C   UNK N   1      26.131  17.463   4.466  0.00  0.00     0.030 C 
HETATM   10  C   UNK N   1      26.985  17.976   5.383  0.00  0.00     0.096 C 
HETATM   11  C   UNK N   1      28.382  17.347   5.459  0.00  0.00     0.177 C 
HETATM   12  C   UNK N   1      28.214  15.804   5.516  0.00  0.00     0.075 C 
HETATM   13  C   UNK N   1      27.136  15.239   4.554  0.00  0.00     0.021 C 
HETATM   14  C   UNK N   1      26.655  16.339   3.618  0.00  0.00     0.030 C 
HETATM   15  C   UNK N   1      25.701  15.888   2.537  0.00  0.00     0.051 C 
HETATM   16  C   UNK N   1      29.576  15.074   5.399  0.00  0.00     0.286 C 
HETATM   17  C   UNK N   1      30.635  15.701   6.322  0.00  0.00     0.096 C 
HETATM   18  C   UNK N   1      30.471  16.920   6.925  0.00  0.00     0.112 C 
HETATM   19  C   UNK N   1      29.230  17.717   6.647  0.00  0.00     0.208 C 
HETATM   20  O   UNK N   1      28.912  18.643   7.377  0.00  0.00    -0.288 OA
ENDROOT
BRANCH   1  21
HETATM   21  C   UNK N   1      20.202  15.465   4.331  0.00  0.00     0.155 C 
BRANCH  21  22
HETATM   22  N   UNK N   1      20.071  15.396   5.788  0.00  0.00    -0.417 N 
HETATM   23  H   UNK N   1      19.649  16.125   6.362  0.00  0.00     0.153 HD
BRANCH  22  24
HETATM   24  C   UNK N   1      20.623  14.145   6.315  0.00  0.00     0.122 C 
BRANCH  24  25
HETATM   25  C   UNK N   1      21.491  14.344   7.555  0.00  0.00    -0.036 C 
HETATM   26  C   UNK N   1      21.041  15.616   8.238  0.00  0.00     0.016 C 
HETATM   27  C   UNK N   1      22.950  14.486   7.166  0.00  0.00     0.016 C 
HETATM   28  C   UNK N   1      21.336  13.196   8.535  0.00  0.00     0.016 C 
ENDBRANCH  24  25
ENDBRANCH  22  24
ENDBRANCH  21  22
ENDBRANCH   1  21
BRANCH   6  29
HETATM   29  O   UNK N   1      21.917  17.594   5.126  0.00  0.00    -0.359 OA
HETATM   30  H   UNK N   1      21.580  17.348   5.965  0.00  0.00     0.217 HD
ENDBRANCH   6  29
BRANCH   3  31
HETATM   31  N   UNK N   1      23.935  13.592   1.724  0.00  0.00    -0.389 N 
HETATM   32  C   UNK N   1      24.622  12.420   2.204  0.00  0.00     0.149 C 
HETATM   33  C   UNK N   1      23.691  13.661   0.304  0.00  0.00     0.149 C 
ENDBRANCH   3  31
BRANCH  10  34
HETATM   34  O   UNK N   1      26.582  18.917   6.263  0.00  0.00    -0.361 OA
HETATM   35  H   UNK N   1      25.725  18.881   6.640  0.00  0.00     0.217 HD
ENDBRANCH  10  34
BRANCH  11  36
HETATM   36  O   UNK N   1      29.084  17.691   4.296  0.00  0.00    -0.374 OA
HETATM   37  H   UNK N   1      29.722  18.202   3.774  0.00  0.00     0.211 HD
ENDBRANCH  11  36
BRANCH  16  38
HETATM   38  N   UNK N   1      30.007  14.928   3.986  0.00  0.00     0.091 N 
HETATM   39  C   UNK N   1      31.310  15.518   3.715  0.00  0.00     0.310 C 
HETATM   40  C   UNK N   1      30.196  13.511   3.707  0.00  0.00     0.310 C 
ENDBRANCH  16  38
BRANCH  18  41
HETATM   41  C   UNK N   1      31.505  17.464   7.874  0.00  0.00     0.255 C 
HETATM   42  O   UNK N   1      32.657  17.644   7.505  0.00  0.00    -0.268 OA
HETATM   43  N   UNK N   1      31.177  17.781   9.141  0.00  0.00    -0.366 N 
HETATM   44  H   UNK N   1      30.277  17.593   9.494  0.00  0.00     0.159 HD
HETATM   45  H   UNK N   1      31.846  18.206   9.724  0.00  0.00     0.159 HD
ENDBRANCH  18  41
BRANCH  17  46
HETATM   46  O   UNK N   1      31.749  14.976   6.565  0.00  0.00    -0.362 OA
HETATM   47  H   UNK N   1      32.548  15.374   6.850  0.00  0.00     0.217 HD
ENDBRANCH  17  46
TORSDOF 11
ENDMDL
MODEL 4
REMARK VINA RESULT:      -7.1      6.547      9.715
REMARK  11 active torsions:
REMARK  status: ('A' for Active; 'I' for Inactive)
REMARK    1  A    between atoms: C_2  and  C_5 
REMARK    2  A    between atoms: C_5  and  N_6 
REMARK    3  A    between atoms: N_6  and  C_7 
REMARK    4  A    between atoms: C_7  and  C_8 
REMARK    5  A    between atoms: C_10  and  N_38 
REMARK    6  A    between atoms: C_13  and  O_14 
REMARK    7  A    between atoms: C_18  and  O_37 
REMARK    8  A    between atoms: C_19  and  O_36 
REMARK    9  A    between atoms: C_24  and  N_33 
REMARK   10  A    between atoms: C_25  and  O_32 
REMARK   11  A    between atoms: C_26  and  C_29 
REMARK       I    between atoms: C_29  and  N_31 
ROOT
HETATM    1  C   UNK N   1      24.970  12.644   5.946  0.00  0.00    -0.005 A 
HETATM    2  C   UNK N   1      25.562  12.052   4.835  0.00  0.00     0.041 A 
HETATM    3  C   UNK N   1      26.612  12.666   4.139  0.00  0.00     0.037 A 
HETATM    4  C   UNK N   1      27.073  13.930   4.608  0.00  0.00    -0.014 A 
HETATM    5  C   UNK N   1      26.482  14.536   5.748  0.00  0.00     0.057 A 
HETATM    6  C   UNK N   1      25.420  13.886   6.408  0.00  0.00     0.088 A 
HETATM    7  C   UNK N   1      27.073  15.793   6.305  0.00  0.00     0.194 C 
HETATM    8  O   UNK N   1      26.495  16.436   7.167  0.00  0.00    -0.287 OA
HETATM    9  C   UNK N   1      28.503  16.056   5.988  0.00  0.00     0.030 C 
HETATM   10  C   UNK N   1      29.333  16.753   6.800  0.00  0.00     0.096 C 
HETATM   11  C   UNK N   1      30.827  16.723   6.455  0.00  0.00     0.177 C 
HETATM   12  C   UNK N   1      31.238  15.245   6.217  0.00  0.00     0.075 C 
HETATM   13  C   UNK N   1      30.214  14.416   5.397  0.00  0.00     0.021 C 
HETATM   14  C   UNK N   1      29.143  15.338   4.834  0.00  0.00     0.030 C 
HETATM   15  C   UNK N   1      28.157  14.677   3.899  0.00  0.00     0.051 C 
HETATM   16  C   UNK N   1      32.686  15.132   5.674  0.00  0.00     0.286 C 
HETATM   17  C   UNK N   1      33.660  16.014   6.474  0.00  0.00     0.096 C 
HETATM   18  C   UNK N   1      33.243  16.989   7.342  0.00  0.00     0.112 C 
HETATM   19  C   UNK N   1      31.775  17.257   7.497  0.00  0.00     0.208 C 
HETATM   20  O   UNK N   1      31.358  17.888   8.455  0.00  0.00    -0.288 OA
ENDROOT
BRANCH   1  21
HETATM   21  C   UNK N   1      23.864  11.906   6.643  0.00  0.00     0.155 C 
BRANCH  21  22
HETATM   22  N   UNK N   1      24.261  11.383   7.952  0.00  0.00    -0.417 N 
HETATM   23  H   UNK N   1      25.208  11.088   8.190  0.00  0.00     0.153 HD
BRANCH  22  24
HETATM   24  C   UNK N   1      23.124  11.339   8.876  0.00  0.00     0.122 C 
BRANCH  24  25
HETATM   25  C   UNK N   1      23.252  12.323  10.036  0.00  0.00    -0.036 C 
HETATM   26  C   UNK N   1      22.742  11.639  11.285  0.00  0.00     0.016 C 
HETATM   27  C   UNK N   1      22.413  13.561   9.778  0.00  0.00     0.016 C 
HETATM   28  C   UNK N   1      24.696  12.727  10.269  0.00  0.00     0.016 C 
ENDBRANCH  24  25
ENDBRANCH  22  24
ENDBRANCH  21  22
ENDBRANCH   1  21
BRANCH   6  29
HETATM   29  O   UNK N   1      24.859  14.430   7.505  0.00  0.00    -0.359 OA
HETATM   30  H   UNK N   1      25.304  14.408   8.329  0.00  0.00     0.217 HD
ENDBRANCH   6  29
BRANCH   3  31
HETATM   31  N   UNK N   1      27.170  11.983   2.995  0.00  0.00    -0.389 N 
HETATM   32  C   UNK N   1      28.355  11.165   3.057  0.00  0.00     0.149 C 
HETATM   33  C   UNK N   1      26.520  12.079   1.711  0.00  0.00     0.149 C 
ENDBRANCH   3  31
BRANCH  10  34
HETATM   34  O   UNK N   1      28.875  17.347   7.922  0.00  0.00    -0.361 OA
HETATM   35  H   UNK N   1      29.245  17.139   8.757  0.00  0.00     0.217 HD
ENDBRANCH  10  34
BRANCH  11  36
HETATM   36  O   UNK N   1      31.021  17.451   5.274  0.00  0.00    -0.374 OA
HETATM   37  H   UNK N   1      30.862  17.675   4.343  0.00  0.00     0.211 HD
ENDBRANCH  11  36
BRANCH  16  38
HETATM   38  N   UNK N   1      32.743  15.336   4.205  0.00  0.00     0.091 N 
HETATM   39  C   UNK N   1      33.491  16.522   3.814  0.00  0.00     0.310 C 
HETATM   40  C   UNK N   1      33.495  14.236   3.617  0.00  0.00     0.310 C 
ENDBRANCH  16  38
BRANCH  18  41
HETATM   41  C   UNK N   1      34.232  17.782   8.153  0.00  0.00     0.255 C 
HETATM   42  O   UNK N   1      34.923  18.642   7.627  0.00  0.00    -0.268 OA
HETATM   43  N   UNK N   1      34.360  17.572   9.478  0.00  0.00    -0.366 N 
HETATM   44  H   UNK N   1      33.867  16.848   9.927  0.00  0.00     0.159 HD
HETATM   45  H   UNK N   1      34.955  18.152  10.005  0.00  0.00     0.159 HD
ENDBRANCH  18  41
BRANCH  17  46
HETATM   46  O   UNK N   1      34.979  15.766   6.326  0.00  0.00    -0.362 OA
HETATM   47  H   UNK N   1      35.296  14.962   5.964  0.00  0.00     0.217 HD
ENDBRANCH  17  46
TORSDOF 11
ENDMDL
MODEL 5
REMARK VINA RESULT:      -7.0      4.349     10.371
REMARK  11 active torsions:
REMARK  status: ('A' for Active; 'I' for Inactive)
REMARK    1  A    between atoms: C_2  and  C_5 
REMARK    2  A    between atoms: C_5  and  N_6 
REMARK    3  A    between atoms: N_6  and  C_7 
REMARK    4  A    between atoms: C_7  and  C_8 
REMARK    5  A    between atoms: C_10  and  N_38 
REMARK    6  A    between atoms: C_13  and  O_14 
REMARK    7  A    between atoms: C_18  and  O_37 
REMARK    8  A    between atoms: C_19  and  O_36 
REMARK    9  A    between atoms: C_24  and  N_33 
REMARK   10  A    between atoms: C_25  and  O_32 
REMARK   11  A    between atoms: C_26  and  C_29 
REMARK       I    between atoms: C_29  and  N_31 
ROOT
HETATM    1  C   UNK N   1      36.194   9.658  20.581  0.00  0.00    -0.005 A 
HETATM    2  C   UNK N   1      35.929   8.442  19.960  0.00  0.00     0.041 A 
HETATM    3  C   UNK N   1      35.339   8.370  18.691  0.00  0.00     0.037 A 
HETATM    4  C   UNK N   1      35.018   9.594  18.036  0.00  0.00    -0.014 A 
HETATM    5  C   UNK N   1      35.296  10.840  18.657  0.00  0.00     0.057 A 
HETATM    6  C   UNK N   1      35.880  10.861  19.940  0.00  0.00     0.088 A 
HETATM    7  C   UNK N   1      35.081  12.108  17.894  0.00  0.00     0.194 C 
HETATM    8  O   UNK N   1      35.138  13.196  18.446  0.00  0.00    -0.287 OA
HETATM    9  C   UNK N   1      35.095  12.005  16.410  0.00  0.00     0.030 C 
HETATM   10  C   UNK N   1      35.484  13.014  15.594  0.00  0.00     0.096 C 
HETATM   11  C   UNK N   1      35.678  12.671  14.112  0.00  0.00     0.177 C 
HETATM   12  C   UNK N   1      36.550  11.389  14.024  0.00  0.00     0.075 C 
HETATM   13  C   UNK N   1      36.183  10.289  15.055  0.00  0.00     0.021 C 
HETATM   14  C   UNK N   1      34.890  10.664  15.765  0.00  0.00     0.030 C 
HETATM   15  C   UNK N   1      34.346   9.610  16.701  0.00  0.00     0.051 C 
HETATM   16  C   UNK N   1      36.640  10.855  12.571  0.00  0.00     0.286 C 
HETATM   17  C   UNK N   1      36.945  11.984  11.571  0.00  0.00     0.096 C 
HETATM   18  C   UNK N   1      36.845  13.312  11.893  0.00  0.00     0.112 C 
HETATM   19  C   UNK N   1      36.370  13.704  13.261  0.00  0.00     0.208 C 
HETATM   20  O   UNK N   1      36.550  14.837  13.679  0.00  0.00    -0.288 OA
ENDROOT
BRANCH   1  21
HETATM   21  C   UNK N   1      36.847   9.641  21.933  0.00  0.00     0.155 C 
BRANCH  21  22
HETATM   22  N   UNK N   1      35.934  10.019  23.014  0.00  0.00    -0.417 N 
HETATM   23  H   UNK N   1      36.023  10.868  23.571  0.00  0.00     0.153 HD
BRANCH  22  24
HETATM   24  C   UNK N   1      34.875   9.021  23.193  0.00  0.00     0.122 C 
BRANCH  24  25
HETATM   25  C   UNK N   1      33.518   9.636  23.526  0.00  0.00    -0.036 C 
HETATM   26  C   UNK N   1      33.149  10.584  22.406  0.00  0.00     0.016 C 
HETATM   27  C   UNK N   1      33.591  10.417  24.825  0.00  0.00     0.016 C 
HETATM   28  C   UNK N   1      32.436   8.577  23.629  0.00  0.00     0.016 C 
ENDBRANCH  24  25
ENDBRANCH  22  24
ENDBRANCH  21  22
ENDBRANCH   1  21
BRANCH   6  29
HETATM   29  O   UNK N   1      36.174  12.030  20.540  0.00  0.00    -0.359 OA
HETATM   30  H   UNK N   1      35.492  12.590  20.853  0.00  0.00     0.217 HD
ENDBRANCH   6  29
BRANCH   3  31
HETATM   31  N   UNK N   1      35.097   7.065  18.119  0.00  0.00    -0.389 N 
HETATM   32  C   UNK N   1      35.871   6.518  17.033  0.00  0.00     0.149 C 
HETATM   33  C   UNK N   1      34.052   6.227  18.653  0.00  0.00     0.149 C 
ENDBRANCH   3  31
BRANCH  10  34
HETATM   34  O   UNK N   1      35.794  14.231  16.088  0.00  0.00    -0.361 OA
HETATM   35  H   UNK N   1      36.688  14.497  16.175  0.00  0.00     0.217 HD
ENDBRANCH  10  34
BRANCH  11  36
HETATM   36  O   UNK N   1      34.421  12.413  13.550  0.00  0.00    -0.374 OA
HETATM   37  H   UNK N   1      33.644  11.869  13.348  0.00  0.00     0.211 HD
ENDBRANCH  11  36
BRANCH  16  38
HETATM   38  N   UNK N   1      35.464  10.024  12.213  0.00  0.00     0.091 N 
HETATM   39  C   UNK N   1      34.737  10.520  11.053  0.00  0.00     0.310 C 
HETATM   40  C   UNK N   1      35.938   8.711  11.797  0.00  0.00     0.310 C 
ENDBRANCH  16  38
BRANCH  18  41
HETATM   41  C   UNK N   1      37.218  14.383  10.902  0.00  0.00     0.255 C 
HETATM   42  O   UNK N   1      38.115  14.198  10.093  0.00  0.00    -0.268 OA
HETATM   43  N   UNK N   1      36.558  15.557  10.878  0.00  0.00    -0.366 N 
HETATM   44  H   UNK N   1      35.873  15.768  11.552  0.00  0.00     0.159 HD
HETATM   45  H   UNK N   1      36.764  16.214  10.175  0.00  0.00     0.159 HD
ENDBRANCH  18  41
BRANCH  17  46
HETATM   46  O   UNK N   1      37.370  11.621  10.342  0.00  0.00    -0.362 OA
HETATM   47  H   UNK N   1      37.551  12.252   9.673  0.00  0.00     0.217 HD
ENDBRANCH  17  46
TORSDOF 11
ENDMDL
MODEL 6
REMARK VINA RESULT:      -7.0      4.244      7.249
REMARK  11 active torsions:
REMARK  status: ('A' for Active; 'I' for Inactive)
REMARK    1  A    between atoms: C_2  and  C_5 
REMARK    2  A    between atoms: C_5  and  N_6 
REMARK    3  A    between atoms: N_6  and  C_7 
REMARK    4  A    between atoms: C_7  and  C_8 
REMARK    5  A    between atoms: C_10  and  N_38 
REMARK    6  A    between atoms: C_13  and  O_14 
REMARK    7  A    between atoms: C_18  and  O_37 
REMARK    8  A    between atoms: C_19  and  O_36 
REMARK    9  A    between atoms: C_24  and  N_33 
REMARK   10  A    between atoms: C_25  and  O_32 
REMARK   11  A    between atoms: C_26  and  C_29 
REMARK       I    between atoms: C_29  and  N_31 
ROOT
HETATM    1  C   UNK N   1      26.909  15.547   5.909  0.00  0.00    -0.005 A 
HETATM    2  C   UNK N   1      27.333  14.796   4.818  0.00  0.00     0.041 A 
HETATM    3  C   UNK N   1      28.663  14.809   4.380  0.00  0.00     0.037 A 
HETATM    4  C   UNK N   1      29.593  15.618   5.097  0.00  0.00    -0.014 A 
HETATM    5  C   UNK N   1      29.171  16.378   6.220  0.00  0.00     0.057 A 
HETATM    6  C   UNK N   1      27.819  16.342   6.615  0.00  0.00     0.088 A 
HETATM    7  C   UNK N   1      30.188  17.107   7.040  0.00  0.00     0.194 C 
HETATM    8  O   UNK N   1      29.852  17.908   7.899  0.00  0.00    -0.287 OA
HETATM    9  C   UNK N   1      31.586  16.601   6.975  0.00  0.00     0.030 C 
HETATM   10  C   UNK N   1      32.471  16.715   7.994  0.00  0.00     0.096 C 
HETATM   11  C   UNK N   1      33.781  15.929   7.865  0.00  0.00     0.177 C 
HETATM   12  C   UNK N   1      33.431  14.469   7.467  0.00  0.00     0.075 C 
HETATM   13  C   UNK N   1      32.319  14.346   6.392  0.00  0.00     0.021 C 
HETATM   14  C   UNK N   1      31.995  15.722   5.828  0.00  0.00     0.030 C 
HETATM   15  C   UNK N   1      31.022  15.727   4.673  0.00  0.00     0.051 C 
HETATM   16  C   UNK N   1      34.701  13.648   7.125  0.00  0.00     0.286 C 
HETATM   17  C   UNK N   1      35.802  13.844   8.180  0.00  0.00     0.096 C 
HETATM   18  C   UNK N   1      35.768  14.842   9.118  0.00  0.00     0.112 C 
HETATM   19  C   UNK N   1      34.637  15.829   9.101  0.00  0.00     0.208 C 
HETATM   20  O   UNK N   1      34.411  16.530  10.075  0.00  0.00    -0.288 OA
ENDROOT
BRANCH   1  21
HETATM   21  C   UNK N   1      25.468  15.457   6.320  0.00  0.00     0.155 C 
BRANCH  21  22
HETATM   22  N   UNK N   1      25.262  14.623   7.507  0.00  0.00    -0.417 N 
HETATM   23  H   UNK N   1      25.976  14.437   8.210  0.00  0.00     0.153 HD
BRANCH  22  24
HETATM   24  C   UNK N   1      23.897  14.091   7.554  0.00  0.00     0.122 C 
BRANCH  24  25
HETATM   25  C   UNK N   1      23.748  12.897   8.494  0.00  0.00    -0.036 C 
HETATM   26  C   UNK N   1      22.332  12.896   9.024  0.00  0.00     0.016 C 
HETATM   27  C   UNK N   1      24.709  13.016   9.662  0.00  0.00     0.016 C 
HETATM   28  C   UNK N   1      23.987  11.584   7.771  0.00  0.00     0.016 C 
ENDBRANCH  24  25
ENDBRANCH  22  24
ENDBRANCH  21  22
ENDBRANCH   1  21
BRANCH   6  29
HETATM   29  O   UNK N   1      27.400  17.036   7.690  0.00  0.00    -0.359 OA
HETATM   30  H   UNK N   1      28.007  17.300   8.354  0.00  0.00     0.217 HD
ENDBRANCH   6  29
BRANCH   3  31
HETATM   31  N   UNK N   1      29.019  14.001   3.237  0.00  0.00    -0.389 N 
HETATM   32  C   UNK N   1      29.584  12.679   3.343  0.00  0.00     0.149 C 
HETATM   33  C   UNK N   1      28.787  14.498   1.903  0.00  0.00     0.149 C 
ENDBRANCH   3  31
BRANCH  10  34
HETATM   34  O   UNK N   1      32.159  17.397   9.116  0.00  0.00    -0.361 OA
HETATM   35  H   UNK N   1      31.442  18.000   9.124  0.00  0.00     0.217 HD
ENDBRANCH  10  34
BRANCH  11  36
HETATM   36  O   UNK N   1      34.548  16.513   6.849  0.00  0.00    -0.374 OA
HETATM   37  H   UNK N   1      34.907  16.587   5.950  0.00  0.00     0.211 HD
ENDBRANCH  11  36
BRANCH  16  38
HETATM   38  N   UNK N   1      35.147  13.874   5.727  0.00  0.00     0.091 N 
HETATM   39  C   UNK N   1      36.514  14.365   5.629  0.00  0.00     0.310 C 
HETATM   40  C   UNK N   1      35.183  12.589   5.043  0.00  0.00     0.310 C 
ENDBRANCH  16  38
BRANCH  18  41
HETATM   41  C   UNK N   1      36.835  14.955  10.174  0.00  0.00     0.255 C 
HETATM   42  O   UNK N   1      38.016  14.831   9.884  0.00  0.00    -0.268 OA
HETATM   43  N   UNK N   1      36.509  15.215  11.455  0.00  0.00    -0.366 N 
HETATM   44  H   UNK N   1      35.568  15.260  11.740  0.00  0.00     0.159 HD
HETATM   45  H   UNK N   1      37.223  15.361  12.117  0.00  0.00     0.159 HD
ENDBRANCH  18  41
BRANCH  17  46
HETATM   46  O   UNK N   1      36.817  12.952   8.187  0.00  0.00    -0.362 OA
HETATM   47  H   UNK N   1      36.828  12.217   8.768  0.00  0.00     0.217 HD
ENDBRANCH  17  46
TORSDOF 11
ENDMDL
MODEL 7
REMARK VINA RESULT:      -7.0      3.322      5.825
REMARK  11 active torsions:
REMARK  status: ('A' for Active; 'I' for Inactive)
REMARK    1  A    between atoms: C_2  and  C_5 
REMARK    2  A    between atoms: C_5  and  N_6 
REMARK    3  A    between atoms: N_6  and  C_7 
REMARK    4  A    between atoms: C_7  and  C_8 
REMARK    5  A    between atoms: C_10  and  N_38 
REMARK    6  A    between atoms: C_13  and  O_14 
REMARK    7  A    between atoms: C_18  and  O_37 
REMARK    8  A    between atoms: C_19  and  O_36 
REMARK    9  A    between atoms: C_24  and  N_33 
REMARK   10  A    between atoms: C_25  and  O_32 
REMARK   11  A    between atoms: C_26  and  C_29 
REMARK       I    between atoms: C_29  and  N_31 
ROOT
HETATM    1  C   UNK N   1      27.971  16.185   5.865  0.00  0.00    -0.005 A 
HETATM    2  C   UNK N   1      28.248  15.175   4.949  0.00  0.00     0.041 A 
HETATM    3  C   UNK N   1      29.557  14.749   4.688  0.00  0.00     0.037 A 
HETATM    4  C   UNK N   1      30.617  15.379   5.402  0.00  0.00    -0.014 A 
HETATM    5  C   UNK N   1      30.342  16.402   6.347  0.00  0.00     0.057 A 
HETATM    6  C   UNK N   1      29.010  16.806   6.567  0.00  0.00     0.088 A 
HETATM    7  C   UNK N   1      31.455  16.950   7.184  0.00  0.00     0.194 C 
HETATM    8  O   UNK N   1      31.295  17.944   7.876  0.00  0.00    -0.287 OA
HETATM    9  C   UNK N   1      32.645  16.077   7.369  0.00  0.00     0.030 C 
HETATM   10  C   UNK N   1      33.436  16.112   8.468  0.00  0.00     0.096 C 
HETATM   11  C   UNK N   1      34.466  14.986   8.616  0.00  0.00     0.177 C 
HETATM   12  C   UNK N   1      33.741  13.633   8.379  0.00  0.00     0.075 C 
HETATM   13  C   UNK N   1      32.735  13.642   7.197  0.00  0.00     0.021 C 
HETATM   14  C   UNK N   1      32.875  14.940   6.414  0.00  0.00     0.030 C 
HETATM   15  C   UNK N   1      32.047  15.019   5.153  0.00  0.00     0.051 C 
HETATM   16  C   UNK N   1      34.740  12.450   8.318  0.00  0.00     0.286 C 
HETATM   17  C   UNK N   1      35.758  12.509   9.469  0.00  0.00     0.096 C 
HETATM   18  C   UNK N   1      35.937  13.620  10.250  0.00  0.00     0.112 C 
HETATM   19  C   UNK N   1      35.149  14.862   9.954  0.00  0.00     0.208 C 
HETATM   20  O   UNK N   1      35.056  15.751  10.786  0.00  0.00    -0.288 OA
ENDROOT
BRANCH   1  21
HETATM   21  C   UNK N   1      26.537  16.565   6.096  0.00  0.00     0.155 C 
BRANCH  21  22
HETATM   22  N   UNK N   1      26.315  18.012   6.064  0.00  0.00    -0.417 N 
HETATM   23  H   UNK N   1      26.258  18.603   6.893  0.00  0.00     0.153 HD
BRANCH  22  24
HETATM   24  C   UNK N   1      26.188  18.503   4.688  0.00  0.00     0.122 C 
BRANCH  24  25
HETATM   25  C   UNK N   1      26.748  19.910   4.496  0.00  0.00    -0.036 C 
HETATM   26  C   UNK N   1      28.258  19.814   4.501  0.00  0.00     0.016 C 
HETATM   27  C   UNK N   1      26.311  20.816   5.631  0.00  0.00     0.016 C 
HETATM   28  C   UNK N   1      26.313  20.508   3.171  0.00  0.00     0.016 C 
ENDBRANCH  24  25
ENDBRANCH  22  24
ENDBRANCH  21  22
ENDBRANCH   1  21
BRANCH   6  29
HETATM   29  O   UNK N   1      28.723  17.758   7.474  0.00  0.00    -0.359 OA
HETATM   30  H   UNK N   1      27.883  18.172   7.482  0.00  0.00     0.217 HD
ENDBRANCH   6  29
BRANCH   3  31
HETATM   31  N   UNK N   1      29.756  13.695   3.721  0.00  0.00    -0.389 N 
HETATM   32  C   UNK N   1      29.996  12.320   4.081  0.00  0.00     0.149 C 
HETATM   33  C   UNK N   1      29.694  13.990   2.310  0.00  0.00     0.149 C 
ENDBRANCH   3  31
BRANCH  10  34
HETATM   34  O   UNK N   1      33.242  17.030   9.438  0.00  0.00    -0.361 OA
HETATM   35  H   UNK N   1      33.589  16.896  10.298  0.00  0.00     0.217 HD
ENDBRANCH  10  34
BRANCH  11  36
HETATM   36  O   UNK N   1      35.453  15.158   7.637  0.00  0.00    -0.374 OA
HETATM   37  H   UNK N   1      36.165  15.634   7.181  0.00  0.00     0.211 HD
ENDBRANCH  11  36
BRANCH  16  38
HETATM   38  N   UNK N   1      35.349  12.308   6.971  0.00  0.00     0.091 N 
HETATM   39  C   UNK N   1      36.803  12.375   6.984  0.00  0.00     0.310 C 
HETATM   40  C   UNK N   1      35.063  10.968   6.476  0.00  0.00     0.310 C 
ENDBRANCH  16  38
BRANCH  18  41
HETATM   41  C   UNK N   1      36.898  13.611  11.409  0.00  0.00     0.255 C 
HETATM   42  O   UNK N   1      37.986  13.063  11.313  0.00  0.00    -0.268 OA
HETATM   43  N   UNK N   1      36.584  14.222  12.568  0.00  0.00    -0.366 N 
HETATM   44  H   UNK N   1      35.694  14.621  12.706  0.00  0.00     0.159 HD
HETATM   45  H   UNK N   1      37.253  14.272  13.287  0.00  0.00     0.159 HD
ENDBRANCH  18  41
BRANCH  17  46
HETATM   46  O   UNK N   1      36.464  11.387   9.727  0.00  0.00    -0.362 OA
HETATM   47  H   UNK N   1      36.066  10.539   9.727  0.00  0.00     0.217 HD
ENDBRANCH  17  46
TORSDOF 11
ENDMDL
MODEL 8
REMARK VINA RESULT:      -6.9      1.559      2.279
REMARK  11 active torsions:
REMARK  status: ('A' for Active; 'I' for Inactive)
REMARK    1  A    between atoms: C_2  and  C_5 
REMARK    2  A    between atoms: C_5  and  N_6 
REMARK    3  A    between atoms: N_6  and  C_7 
REMARK    4  A    between atoms: C_7  and  C_8 
REMARK    5  A    between atoms: C_10  and  N_38 
REMARK    6  A    between atoms: C_13  and  O_14 
REMARK    7  A    between atoms: C_18  and  O_37 
REMARK    8  A    between atoms: C_19  and  O_36 
REMARK    9  A    between atoms: C_24  and  N_33 
REMARK   10  A    between atoms: C_25  and  O_32 
REMARK   11  A    between atoms: C_26  and  C_29 
REMARK       I    between atoms: C_29  and  N_31 
ROOT
HETATM    1  C   UNK N   1      32.313  16.819   6.171  0.00  0.00    -0.005 A 
HETATM    2  C   UNK N   1      32.525  15.646   5.455  0.00  0.00     0.041 A 
HETATM    3  C   UNK N   1      33.573  14.768   5.763  0.00  0.00     0.037 A 
HETATM    4  C   UNK N   1      34.427  15.107   6.852  0.00  0.00    -0.014 A 
HETATM    5  C   UNK N   1      34.210  16.297   7.596  0.00  0.00     0.057 A 
HETATM    6  C   UNK N   1      33.150  17.154   7.241  0.00  0.00     0.088 A 
HETATM    7  C   UNK N   1      35.030  16.561   8.819  0.00  0.00     0.194 C 
HETATM    8  O   UNK N   1      34.998  17.645   9.381  0.00  0.00    -0.287 OA
HETATM    9  C   UNK N   1      35.640  15.378   9.483  0.00  0.00     0.030 C 
HETATM   10  C   UNK N   1      35.897  15.314  10.812  0.00  0.00     0.096 C 
HETATM   11  C   UNK N   1      36.293  13.944  11.377  0.00  0.00     0.177 C 
HETATM   12  C   UNK N   1      35.270  12.896  10.861  0.00  0.00     0.075 C 
HETATM   13  C   UNK N   1      34.880  13.060   9.368  0.00  0.00     0.021 C 
HETATM   14  C   UNK N   1      35.781  14.096   8.713  0.00  0.00     0.030 C 
HETATM   15  C   UNK N   1      35.597  14.252   7.221  0.00  0.00     0.051 C 
HETATM   16  C   UNK N   1      35.699  11.451  11.223  0.00  0.00     0.286 C 
HETATM   17  C   UNK N   1      36.136  11.342  12.693  0.00  0.00     0.096 C 
HETATM   18  C   UNK N   1      36.398  12.435  13.476  0.00  0.00     0.112 C 
HETATM   19  C   UNK N   1      36.307  13.808  12.877  0.00  0.00     0.208 C 
HETATM   20  O   UNK N   1      36.237  14.794  13.594  0.00  0.00    -0.288 OA
ENDROOT
BRANCH   1  21
HETATM   21  C   UNK N   1      31.153  17.690   5.785  0.00  0.00     0.155 C 
BRANCH  21  22
HETATM   22  N   UNK N   1      29.858  17.130   6.180  0.00  0.00    -0.417 N 
HETATM   23  H   UNK N   1      29.103  16.915   5.530  0.00  0.00     0.153 HD
BRANCH  22  24
HETATM   24  C   UNK N   1      29.788  16.917   7.628  0.00  0.00     0.122 C 
BRANCH  24  25
HETATM   25  C   UNK N   1      28.981  17.989   8.356  0.00  0.00    -0.036 C 
HETATM   26  C   UNK N   1      27.950  17.291   9.215  0.00  0.00     0.016 C 
HETATM   27  C   UNK N   1      28.266  18.884   7.362  0.00  0.00     0.016 C 
HETATM   28  C   UNK N   1      29.861  18.834   9.259  0.00  0.00     0.016 C 
ENDBRANCH  24  25
ENDBRANCH  22  24
ENDBRANCH  21  22
ENDBRANCH   1  21
BRANCH   6  29
HETATM   29  O   UNK N   1      32.910  18.276   7.946  0.00  0.00    -0.359 OA
HETATM   30  H   UNK N   1      32.051  18.461   8.271  0.00  0.00     0.217 HD
ENDBRANCH   6  29
BRANCH   3  31
HETATM   31  N   UNK N   1      33.724  13.572   4.967  0.00  0.00    -0.389 N 
HETATM   32  C   UNK N   1      33.123  12.308   5.311  0.00  0.00     0.149 C 
HETATM   33  C   UNK N   1      34.487  13.611   3.744  0.00  0.00     0.149 C 
ENDBRANCH   3  31
BRANCH  10  34
HETATM   34  O   UNK N   1      35.701  16.383  11.612  0.00  0.00    -0.361 OA
HETATM   35  H   UNK N   1      35.411  16.271  12.496  0.00  0.00     0.217 HD
ENDBRANCH  10  34
BRANCH  11  36
HETATM   36  O   UNK N   1      37.568  13.620  10.896  0.00  0.00    -0.374 OA
HETATM   37  H   UNK N   1      38.443  13.204  10.938  0.00  0.00     0.211 HD
ENDBRANCH  11  36
BRANCH  16  38
HETATM   38  N   UNK N   1      36.680  10.905  10.252  0.00  0.00     0.091 N 
HETATM   39  C   UNK N   1      37.924  10.471  10.869  0.00  0.00     0.310 C 
HETATM   40  C   UNK N   1      36.127   9.686   9.676  0.00  0.00     0.310 C 
ENDBRANCH  16  38
BRANCH  18  41
HETATM   41  C   UNK N   1      36.759  12.283  14.930  0.00  0.00     0.255 C 
HETATM   42  O   UNK N   1      37.529  11.406  15.293  0.00  0.00    -0.268 OA
HETATM   43  N   UNK N   1      36.255  13.122  15.855  0.00  0.00    -0.366 N 
HETATM   44  H   UNK N   1      35.585  13.801  15.612  0.00  0.00     0.159 HD
HETATM   45  H   UNK N   1      36.561  13.056  16.788  0.00  0.00     0.159 HD
ENDBRANCH  18  41
BRANCH  17  46
HETATM   46  O   UNK N   1      36.217  10.102  13.223  0.00  0.00    -0.362 OA
HETATM   47  H   UNK N   1      36.620   9.942  14.053  0.00  0.00     0.217 HD
ENDBRANCH  17  46
TORSDOF 11
ENDMDL
MODEL 9
REMARK VINA RESULT:      -6.9      2.526      3.616
REMARK  11 active torsions:
REMARK  status: ('A' for Active; 'I' for Inactive)
REMARK    1  A    between atoms: C_2  and  C_5 
REMARK    2  A    between atoms: C_5  and  N_6 
REMARK    3  A    between atoms: N_6  and  C_7 
REMARK    4  A    between atoms: C_7  and  C_8 
REMARK    5  A    between atoms: C_10  and  N_38 
REMARK    6  A    between atoms: C_13  and  O_14 
REMARK    7  A    between atoms: C_18  and  O_37 
REMARK    8  A    between atoms: C_19  and  O_36 
REMARK    9  A    between atoms: C_24  and  N_33 
REMARK   10  A    between atoms: C_25  and  O_32 
REMARK   11  A    between atoms: C_26  and  C_29 
REMARK       I    between atoms: C_29  and  N_31 
ROOT
HETATM    1  C   UNK N   1      31.584  16.828   6.079  0.00  0.00    -0.005 A 
HETATM    2  C   UNK N   1      31.998  15.807   5.230  0.00  0.00     0.041 A 
HETATM    3  C   UNK N   1      33.207  15.126   5.422  0.00  0.00     0.037 A 
HETATM    4  C   UNK N   1      34.015  15.506   6.534  0.00  0.00    -0.014 A 
HETATM    5  C   UNK N   1      33.594  16.539   7.412  0.00  0.00     0.057 A 
HETATM    6  C   UNK N   1      32.375  17.202   7.170  0.00  0.00     0.088 A 
HETATM    7  C   UNK N   1      34.387  16.823   8.648  0.00  0.00     0.194 C 
HETATM    8  O   UNK N   1      34.162  17.810   9.331  0.00  0.00    -0.287 OA
HETATM    9  C   UNK N   1      35.240  15.719   9.164  0.00  0.00     0.030 C 
HETATM   10  C   UNK N   1      35.549  15.561  10.474  0.00  0.00     0.096 C 
HETATM   11  C   UNK N   1      36.225  14.243  10.873  0.00  0.00     0.177 C 
HETATM   12  C   UNK N   1      35.411  13.076  10.251  0.00  0.00     0.075 C 
HETATM   13  C   UNK N   1      34.945  13.323   8.791  0.00  0.00     0.021 C 
HETATM   14  C   UNK N   1      35.603  14.584   8.250  0.00  0.00     0.030 C 
HETATM   15  C   UNK N   1      35.341  14.865   6.788  0.00  0.00     0.051 C 
HETATM   16  C   UNK N   1      36.126  11.714  10.439  0.00  0.00     0.286 C 
HETATM   17  C   UNK N   1      36.627  11.532  11.882  0.00  0.00     0.096 C 
HETATM   18  C   UNK N   1      36.696  12.562  12.783  0.00  0.00     0.112 C 
HETATM   19  C   UNK N   1      36.317  13.947  12.347  0.00  0.00     0.208 C 
HETATM   20  O   UNK N   1      36.079  14.814  13.173  0.00  0.00    -0.288 OA
ENDROOT
BRANCH   1  21
HETATM   21  C   UNK N   1      30.263  17.488   5.808  0.00  0.00     0.155 C 
BRANCH  21  22
HETATM   22  N   UNK N   1      29.927  17.534   4.383  0.00  0.00    -0.417 N 
HETATM   23  H   UNK N   1      30.598  17.728   3.640  0.00  0.00     0.153 HD
BRANCH  22  24
HETATM   24  C   UNK N   1      28.503  17.266   4.161  0.00  0.00     0.122 C 
BRANCH  24  25
HETATM   25  C   UNK N   1      28.237  15.897   3.542  0.00  0.00    -0.036 C 
HETATM   26  C   UNK N   1      26.922  15.971   2.798  0.00  0.00     0.016 C 
HETATM   27  C   UNK N   1      28.132  14.836   4.620  0.00  0.00     0.016 C 
HETATM   28  C   UNK N   1      29.323  15.511   2.553  0.00  0.00     0.016 C 
ENDBRANCH  24  25
ENDBRANCH  22  24
ENDBRANCH  21  22
ENDBRANCH   1  21
BRANCH   6  29
HETATM   29  O   UNK N   1      31.944  18.169   8.002  0.00  0.00    -0.359 OA
HETATM   30  H   UNK N   1      32.456  18.940   8.145  0.00  0.00     0.217 HD
ENDBRANCH   6  29
BRANCH   3  31
HETATM   31  N   UNK N   1      33.563  14.079   4.492  0.00  0.00    -0.389 N 
HETATM   32  C   UNK N   1      34.311  14.311   3.283  0.00  0.00     0.149 C 
HETATM   33  C   UNK N   1      33.189  12.714   4.768  0.00  0.00     0.149 C 
ENDBRANCH   3  31
BRANCH  10  34
HETATM   34  O   UNK N   1      35.174  16.474  11.394  0.00  0.00    -0.361 OA
HETATM   35  H   UNK N   1      35.390  16.357  12.298  0.00  0.00     0.217 HD
ENDBRANCH  10  34
BRANCH  11  36
HETATM   36  O   UNK N   1      37.522  14.234  10.343  0.00  0.00    -0.374 OA
HETATM   37  H   UNK N   1      38.183  14.296   9.636  0.00  0.00     0.211 HD
ENDBRANCH  11  36
BRANCH  16  38
HETATM   38  N   UNK N   1      37.162  11.485   9.400  0.00  0.00     0.091 N 
HETATM   39  C   UNK N   1      38.487  11.236   9.949  0.00  0.00     0.310 C 
HETATM   40  C   UNK N   1      36.837  10.254   8.691  0.00  0.00     0.310 C 
ENDBRANCH  16  38
BRANCH  18  41
HETATM   41  C   UNK N   1      37.129  12.325  14.205  0.00  0.00     0.255 C 
HETATM   42  O   UNK N   1      38.069  11.585  14.455  0.00  0.00    -0.268 OA
HETATM   43  N   UNK N   1      36.500  12.937  15.226  0.00  0.00    -0.366 N 
HETATM   44  H   UNK N   1      35.700  13.490  15.071  0.00  0.00     0.159 HD
HETATM   45  H   UNK N   1      36.844  12.830  16.142  0.00  0.00     0.159 HD
ENDBRANCH  18  41
BRANCH  17  46
HETATM   46  O   UNK N   1      36.967  10.282  12.264  0.00  0.00    -0.362 OA
HETATM   47  H   UNK N   1      37.339   9.664  11.666  0.00  0.00     0.217 HD
ENDBRANCH  17  46
TORSDOF 11
ENDMDL
