REMARK  5 active torsions:
REMARK  status: ('A' for Active; 'I' for Inactive)
REMARK    1  A    between atoms: C_6  and  C_3 
REMARK    2  A    between atoms: O_23  and  C_3 
REMARK    3  A    between atoms: C_8  and  O_24 
REMARK    4  A    between atoms: C_9  and  O_25 
REMARK    5  A    between atoms: C_13  and  N_22 
ROOT
HETATM    1  C   UNK N   1       3.804   5.283   0.173  0.00  0.00     0.179 C 
HETATM    2  C   UNK N   1       3.379  -0.254  -0.033  0.00  0.00     0.112 A 
HETATM    3  C   UNK N   1       0.230   2.910  -0.024  0.00  0.00     0.183 A 
HETATM    4  C   UNK N   1       3.779   1.080   0.058  0.00  0.00     0.042 A 
HETATM    5  C   UNK N   1       2.661   1.800   0.054  0.00  0.00     0.069 A 
HETATM    6  C   UNK N   1       4.990   1.767   0.115  0.00  0.00     0.126 A 
HETATM    7  C   UNK N   1       2.594   3.146   0.097  0.00  0.00     0.138 A 
HETATM    8  C   UNK N   1       1.602   1.007  -0.037  0.00  0.00     0.125 A 
HETATM    9  N   UNK N   1       6.107   1.146   0.100  0.00  0.00    -0.384 N 
ATOM     10  HN  UNK N   1       6.982   1.670   0.100  1.00  0.00     0.157 HD
HETATM   11  N   UNK N   1       1.354   3.719   0.063  0.00  0.00    -0.337 N 
ATOM     12  HN  UNK N   1       1.255   4.734   0.101  1.00  0.00     0.168 HD
HETATM   13  N   UNK N   1       0.350   1.532  -0.087  0.00  0.00    -0.338 N 
ATOM     14  HN  UNK N   1      -0.471   0.933  -0.168  1.00  0.00     0.168 HD
HETATM   15  N   UNK N   1       4.950   3.147   0.157  0.00  0.00    -0.282 N 
HETATM   16  N   UNK N   1       3.783   3.829   0.149  0.00  0.00    -0.279 N 
HETATM   17  N   UNK N   1       2.007  -0.284  -0.101  0.00  0.00    -0.311 N 
HETATM   18  H   UNK N   1       6.122   0.161   0.089  0.00  0.00     0.157 HD
HETATM   19  H   UNK N   1       5.796   3.649   0.194  0.00  0.00     0.189 HD
ENDROOT
BRANCH  17  20
HETATM   20  C   UNK N   1       1.163  -1.463  -0.353  0.00  0.00     0.261 C 
HETATM   21  C   UNK N   1       1.887  -2.827  -0.308  0.00  0.00     0.198 C 
HETATM   22  C   UNK N   1       0.775  -3.749   0.174  0.00  0.00     0.182 C 
HETATM   23  C   UNK N   1      -0.449  -2.851   0.115  0.00  0.00     0.179 C 
HETATM   24  O   UNK N   1       0.047  -1.581   0.506  0.00  0.00    -0.353 OA
BRANCH  21  25
HETATM   25  O   UNK N   1       2.914  -2.858   0.643  0.00  0.00    -0.388 OA
HETATM   26  H   UNK N   1       3.251  -3.485   1.303  0.00  0.00     0.210 HD
ENDBRANCH  21  25
BRANCH  22  27
HETATM   27  O   UNK N   1       0.652  -4.911  -0.591  0.00  0.00    -0.390 OA
HETATM   28  H   UNK N   1      -0.089  -5.241  -1.123  0.00  0.00     0.210 HD
ENDBRANCH  22  27
BRANCH  23  29
HETATM   29  C   UNK N   1      -1.586  -3.333   1.006  0.00  0.00     0.198 C 
BRANCH  29  30
HETATM   30  O   UNK N   1      -2.120  -4.521   0.498  0.00  0.00    -0.398 OA
HETATM   31  H   UNK N   1      -3.019  -4.612   0.146  0.00  0.00     0.209 HD
ENDBRANCH  29  30
ENDBRANCH  23  29
ENDBRANCH  17  20
TORSDOF 5
