REMARK  5 active torsions:
REMARK  status: ('A' for Active; 'I' for Inactive)
REMARK    1  A    between atoms: C_2  and  C_4 
REMARK    2  A    between atoms: C_4  and  C_5 
REMARK    3  A    between atoms: C_5  and  O_6 
REMARK    4  A    between atoms: O_6  and  C_7 
REMARK    5  A    between atoms: C_7  and  C_9 
ROOT
HETATM    1  C   UNK N   1       7.931  -2.797   0.000  0.00  0.00     0.110 C 
HETATM    2  C   UNK N   1       7.794  -4.124  -0.000  0.00  0.00     0.042 C 
HETATM    3  C   UNK N   1       9.258  -2.236  -0.000  0.00  0.00     0.105 C 
HETATM    4  N   UNK N   1      10.306  -1.750   0.000  0.00  0.00    -0.191 NA
ENDROOT
BRANCH   1   5
HETATM    5  C   UNK N   1       6.774  -1.855  -0.000  0.00  0.00     0.303 C 
HETATM    6  O   UNK N   1       7.007  -0.657   0.000  0.00  0.00    -0.259 OA
BRANCH   5   7
HETATM    7  O   UNK N   1       5.477  -2.245   0.000  0.00  0.00    -0.317 OA
BRANCH   7   8
HETATM    8  C   UNK N   1       5.007  -3.531   0.000  0.00  0.00     0.179 C 
BRANCH   8   9
HETATM    9  C   UNK N   1       3.476  -3.589  -0.000  0.00  0.00     0.031 C 
BRANCH   9  10
HETATM   10  C   UNK N   1       2.656  -2.285   0.000  0.00  0.00    -0.021 C 
HETATM   11  C   UNK N   1       1.153  -2.432  -0.000  0.00  0.00     0.009 C 
HETATM   12  C   UNK N   1       3.209  -0.867  -0.000  0.00  0.00     0.009 C 
ENDBRANCH   9  10
ENDBRANCH   8   9
ENDBRANCH   7   8
ENDBRANCH   5   7
ENDBRANCH   1   5
TORSDOF 5
