MODEL 1
REMARK VINA RESULT:      -7.8      0.000      0.000
REMARK  11 active torsions:
REMARK  status: ('A' for Active; 'I' for Inactive)
REMARK    1  A    between atoms: O_2  and  C_3 
REMARK    2  A    between atoms: C_5  and  N_34 
REMARK    3  A    between atoms: C_8  and  C_9 
REMARK       I    between atoms: C_9  and  N_11 
REMARK    4  A    between atoms: N_11  and  C_12 
REMARK    5  A    between atoms: C_12  and  C_13 
REMARK    6  A    between atoms: N_16  and  C_19 
REMARK    7  A    between atoms: C_19  and  C_20 
REMARK    8  A    between atoms: C_20  and  C_21 
REMARK    9  A    between atoms: C_21  and  C_22 
REMARK   10  A    between atoms: C_21  and  O_29 
REMARK   11  A    between atoms: O_29  and  C_30 
REMARK       I    between atoms: C_30  and  N_32 
ROOT
HETATM    1  C   UNK N   1      34.432  16.155   8.055  0.00  0.00     0.007 C 
HETATM    2  C   UNK N   1      33.326  15.101   7.987  0.00  0.00     0.036 C 
HETATM    3  C   UNK N   1      31.958  15.756   8.166  0.00  0.00     0.273 C 
HETATM    4  N   UNK N   1      31.739  16.924   7.300  0.00  0.00     0.088 N 
HETATM    5  C   UNK N   1      32.892  17.790   6.990  0.00  0.00     0.273 C 
HETATM    6  C   UNK N   1      34.223  17.046   6.850  0.00  0.00     0.036 C 
ENDROOT
BRANCH   1   7
HETATM    7  C   UNK N   1      34.428  17.007   9.348  0.00  0.00     0.127 C 
BRANCH   7   8
HETATM    8  N   UNK N   1      34.499  16.153  10.504  0.00  0.00    -0.356 N 
HETATM    9  C   UNK N   1      35.671  15.823  11.090  0.00  0.00     0.254 C 
HETATM   10  O   UNK N   1      36.701  16.364  10.724  0.00  0.00    -0.268 OA
HETATM   11  H   UNK N   1      33.663  15.796  10.883  0.00  0.00     0.162 HD
BRANCH   9  12
HETATM   12  C   UNK N   1      35.694  14.678  12.040  0.00  0.00     0.067 A 
HETATM   13  C   UNK N   1      36.308  14.924  13.281  0.00  0.00     0.046 A 
HETATM   14  C   UNK N   1      36.276  13.992  14.312  0.00  0.00     0.061 A 
HETATM   15  C   UNK N   1      35.615  12.777  14.122  0.00  0.00     0.050 A 
HETATM   16 Cl   UNK N   1      37.033  14.389  15.846  0.00  0.00    -0.082 Cl
HETATM   17  C   UNK N   1      35.018  12.497  12.893  0.00  0.00     0.068 A 
HETATM   18  C   UNK N   1      35.049  13.415  11.836  0.00  0.00     0.086 A 
BRANCH  15  19
HETATM   19  N   UNK N   1      35.547  11.829  15.163  0.00  0.00    -0.398 N 
HETATM   20  H   UNK N   1      34.682  11.578  15.560  0.00  0.00     0.156 HD
HETATM   21  H   UNK N   1      36.375  11.413  15.496  0.00  0.00     0.156 HD
ENDBRANCH  15  19
BRANCH  18  22
HETATM   22  O   UNK N   1      34.456  13.025  10.677  0.00  0.00    -0.355 OA
HETATM   23  C   UNK N   1      34.944  12.076   9.811  0.00  0.00     0.210 C 
ENDBRANCH  18  22
ENDBRANCH   9  12
ENDBRANCH   7   8
ENDBRANCH   1   7
BRANCH   4  24
HETATM   24  C   UNK N   1      31.043  16.548   6.092  0.00  0.00     0.275 C 
BRANCH  24  25
HETATM   25  C   UNK N   1      29.570  16.841   6.286  0.00  0.00     0.068 C 
BRANCH  25  26
HETATM   26  C   UNK N   1      29.068  17.530   5.034  0.00  0.00     0.168 C 
BRANCH  26  27
HETATM   27  C   UNK N   1      28.255  18.746   5.394  0.00  0.00    -0.029 A 
HETATM   28  C   UNK N   1      27.706  19.582   4.409  0.00  0.00     0.013 A 
HETATM   29  C   UNK N   1      26.987  20.725   4.777  0.00  0.00     0.043 A 
HETATM   30  C   UNK N   1      26.807  21.036   6.130  0.00  0.00     0.116 A 
HETATM   31  C   UNK N   1      27.343  20.205   7.114  0.00  0.00     0.043 A 
HETATM   32  F   UNK N   1      26.117  22.147   6.485  0.00  0.00    -0.206 F 
HETATM   33  C   UNK N   1      28.068  19.069   6.749  0.00  0.00     0.013 A 
ENDBRANCH  26  27
BRANCH  26  34
HETATM   34  O   UNK N   1      28.385  16.637   4.230  0.00  0.00    -0.294 OA
BRANCH  34  35
HETATM   35  C   UNK N   1      28.840  16.246   3.010  0.00  0.00     0.358 C 
HETATM   36  O   UNK N   1      28.191  15.466   2.320  0.00  0.00    -0.239 OA
HETATM   37  N   UNK N   1      30.015  16.709   2.552  0.00  0.00    -0.346 N 
HETATM   38  H   UNK N   1      30.635  17.223   3.119  0.00  0.00     0.161 HD
HETATM   39  H   UNK N   1      30.265  16.528   1.617  0.00  0.00     0.161 HD
ENDBRANCH  34  35
ENDBRANCH  26  34
ENDBRANCH  25  26
ENDBRANCH  24  25
ENDBRANCH   4  24
TORSDOF 11
ENDMDL
MODEL 2
REMARK VINA RESULT:      -7.8      3.944      5.709
REMARK  11 active torsions:
REMARK  status: ('A' for Active; 'I' for Inactive)
REMARK    1  A    between atoms: O_2  and  C_3 
REMARK    2  A    between atoms: C_5  and  N_34 
REMARK    3  A    between atoms: C_8  and  C_9 
REMARK       I    between atoms: C_9  and  N_11 
REMARK    4  A    between atoms: N_11  and  C_12 
REMARK    5  A    between atoms: C_12  and  C_13 
REMARK    6  A    between atoms: N_16  and  C_19 
REMARK    7  A    between atoms: C_19  and  C_20 
REMARK    8  A    between atoms: C_20  and  C_21 
REMARK    9  A    between atoms: C_21  and  C_22 
REMARK   10  A    between atoms: C_21  and  O_29 
REMARK   11  A    between atoms: O_29  and  C_30 
REMARK       I    between atoms: C_30  and  N_32 
ROOT
HETATM    1  C   UNK N   1      36.284  12.393  10.460  0.00  0.00     0.007 C 
HETATM    2  C   UNK N   1      34.930  13.101  10.401  0.00  0.00     0.036 C 
HETATM    3  C   UNK N   1      35.077  14.472   9.744  0.00  0.00     0.273 C 
HETATM    4  N   UNK N   1      35.806  14.445   8.467  0.00  0.00     0.088 N 
HETATM    5  C   UNK N   1      36.905  13.475   8.310  0.00  0.00     0.273 C 
HETATM    6  C   UNK N   1      36.677  12.138   9.021  0.00  0.00     0.036 C 
ENDROOT
BRANCH   1   7
HETATM    7  C   UNK N   1      37.398  13.197  11.175  0.00  0.00     0.127 C 
BRANCH   7   8
HETATM    8  N   UNK N   1      37.077  13.358  12.569  0.00  0.00    -0.356 N 
HETATM    9  C   UNK N   1      37.172  12.343  13.456  0.00  0.00     0.254 C 
HETATM   10  O   UNK N   1      37.674  11.285  13.110  0.00  0.00    -0.268 OA
HETATM   11  H   UNK N   1      36.776  14.239  12.888  0.00  0.00     0.162 HD
BRANCH   9  12
HETATM   12  C   UNK N   1      36.499  12.485  14.775  0.00  0.00     0.067 A 
HETATM   13  C   UNK N   1      36.004  11.296  15.341  0.00  0.00     0.046 A 
HETATM   14  C   UNK N   1      35.480  11.260  16.628  0.00  0.00     0.061 A 
HETATM   15  C   UNK N   1      35.445  12.429  17.391  0.00  0.00     0.050 A 
HETATM   16 Cl   UNK N   1      34.916   9.729  17.278  0.00  0.00    -0.082 Cl
HETATM   17  C   UNK N   1      35.908  13.626  16.846  0.00  0.00     0.068 A 
HETATM   18  C   UNK N   1      36.427  13.689  15.547  0.00  0.00     0.086 A 
BRANCH  15  19
HETATM   19  N   UNK N   1      34.944  12.409  18.708  0.00  0.00    -0.398 N 
HETATM   20  H   UNK N   1      34.087  11.969  18.914  0.00  0.00     0.156 HD
HETATM   21  H   UNK N   1      35.456  12.840  19.429  0.00  0.00     0.156 HD
ENDBRANCH  15  19
BRANCH  18  22
HETATM   22  O   UNK N   1      36.826  14.914  15.113  0.00  0.00    -0.355 OA
HETATM   23  C   UNK N   1      37.500  15.846  15.865  0.00  0.00     0.210 C 
ENDBRANCH  18  22
ENDBRANCH   9  12
ENDBRANCH   7   8
ENDBRANCH   1   7
BRANCH   4  24
HETATM   24  C   UNK N   1      34.891  14.365   7.352  0.00  0.00     0.275 C 
BRANCH  24  25
HETATM   25  C   UNK N   1      35.158  15.542   6.437  0.00  0.00     0.068 C 
BRANCH  25  26
HETATM   26  C   UNK N   1      34.050  16.552   6.648  0.00  0.00     0.168 C 
BRANCH  26  27
HETATM   27  C   UNK N   1      33.126  16.575   5.457  0.00  0.00    -0.029 A 
HETATM   28  C   UNK N   1      33.539  16.113   4.198  0.00  0.00     0.013 A 
HETATM   29  C   UNK N   1      32.670  16.182   3.103  0.00  0.00     0.043 A 
HETATM   30  C   UNK N   1      31.382  16.708   3.261  0.00  0.00     0.116 A 
HETATM   31  C   UNK N   1      30.963  17.161   4.513  0.00  0.00     0.043 A 
HETATM   32  F   UNK N   1      30.544  16.782   2.200  0.00  0.00    -0.206 F 
HETATM   33  C   UNK N   1      31.832  17.101   5.604  0.00  0.00     0.013 A 
ENDBRANCH  26  27
BRANCH  26  34
HETATM   34  O   UNK N   1      34.576  17.793   6.952  0.00  0.00    -0.294 OA
BRANCH  34  35
HETATM   35  C   UNK N   1      34.588  18.301   8.213  0.00  0.00     0.358 C 
HETATM   36  O   UNK N   1      35.318  19.243   8.502  0.00  0.00    -0.239 OA
HETATM   37  N   UNK N   1      33.797  17.766   9.158  0.00  0.00    -0.346 N 
HETATM   38  H   UNK N   1      33.299  16.929   9.016  0.00  0.00     0.161 HD
HETATM   39  H   UNK N   1      33.713  18.228  10.024  0.00  0.00     0.161 HD
ENDBRANCH  34  35
ENDBRANCH  26  34
ENDBRANCH  25  26
ENDBRANCH  24  25
ENDBRANCH   4  24
TORSDOF 11
ENDMDL
MODEL 3
REMARK VINA RESULT:      -7.8      3.861      5.289
REMARK  11 active torsions:
REMARK  status: ('A' for Active; 'I' for Inactive)
REMARK    1  A    between atoms: O_2  and  C_3 
REMARK    2  A    between atoms: C_5  and  N_34 
REMARK    3  A    between atoms: C_8  and  C_9 
REMARK       I    between atoms: C_9  and  N_11 
REMARK    4  A    between atoms: N_11  and  C_12 
REMARK    5  A    between atoms: C_12  and  C_13 
REMARK    6  A    between atoms: N_16  and  C_19 
REMARK    7  A    between atoms: C_19  and  C_20 
REMARK    8  A    between atoms: C_20  and  C_21 
REMARK    9  A    between atoms: C_21  and  C_22 
REMARK   10  A    between atoms: C_21  and  O_29 
REMARK   11  A    between atoms: O_29  and  C_30 
REMARK       I    between atoms: C_30  and  N_32 
ROOT
HETATM    1  C   UNK N   1      35.420  12.806  10.618  0.00  0.00     0.007 C 
HETATM    2  C   UNK N   1      34.257  12.444   9.693  0.00  0.00     0.036 C 
HETATM    3  C   UNK N   1      33.710  13.699   9.015  0.00  0.00     0.273 C 
HETATM    4  N   UNK N   1      34.743  14.539   8.392  0.00  0.00     0.088 N 
HETATM    5  C   UNK N   1      36.064  14.618   9.043  0.00  0.00     0.273 C 
HETATM    6  C   UNK N   1      36.519  13.319   9.713  0.00  0.00     0.036 C 
ENDROOT
BRANCH   1   7
HETATM    7  C   UNK N   1      35.080  13.872  11.689  0.00  0.00     0.127 C 
BRANCH   7   8
HETATM    8  N   UNK N   1      34.923  13.248  12.976  0.00  0.00    -0.356 N 
HETATM    9  C   UNK N   1      35.695  13.570  14.037  0.00  0.00     0.254 C 
HETATM   10  O   UNK N   1      36.464  14.515  13.958  0.00  0.00    -0.268 OA
HETATM   11  H   UNK N   1      34.228  12.559  13.088  0.00  0.00     0.162 HD
BRANCH   9  12
HETATM   12  C   UNK N   1      35.714  12.654  15.209  0.00  0.00     0.067 A 
HETATM   13  C   UNK N   1      35.473  13.253  16.459  0.00  0.00     0.046 A 
HETATM   14  C   UNK N   1      35.323  12.497  17.616  0.00  0.00     0.061 A 
HETATM   15  C   UNK N   1      35.407  11.105  17.546  0.00  0.00     0.050 A 
HETATM   16 Cl   UNK N   1      34.987  13.316  19.133  0.00  0.00    -0.082 Cl
HETATM   17  C   UNK N   1      35.668  10.487  16.324  0.00  0.00     0.068 A 
HETATM   18  C   UNK N   1      35.836  11.228  15.148  0.00  0.00     0.086 A 
BRANCH  15  19
HETATM   19  N   UNK N   1      35.230  10.319  18.702  0.00  0.00    -0.398 N 
HETATM   20  H   UNK N   1      34.340  10.217  19.111  0.00  0.00     0.156 HD
HETATM   21  H   UNK N   1      36.006   9.866  19.105  0.00  0.00     0.156 HD
ENDBRANCH  15  19
BRANCH  18  22
HETATM   22  O   UNK N   1      36.111  10.521  14.020  0.00  0.00    -0.355 OA
HETATM   23  C   UNK N   1      37.301  10.546  13.333  0.00  0.00     0.210 C 
ENDBRANCH  18  22
ENDBRANCH   9  12
ENDBRANCH   7   8
ENDBRANCH   1   7
BRANCH   4  24
HETATM   24  C   UNK N   1      34.883  14.231   6.988  0.00  0.00     0.275 C 
BRANCH  24  25
HETATM   25  C   UNK N   1      35.097  15.529   6.239  0.00  0.00     0.068 C 
BRANCH  25  26
HETATM   26  C   UNK N   1      34.027  16.502   6.687  0.00  0.00     0.168 C 
BRANCH  26  27
HETATM   27  C   UNK N   1      32.920  16.572   5.666  0.00  0.00    -0.029 A 
HETATM   28  C   UNK N   1      31.688  15.931   5.873  0.00  0.00     0.013 A 
HETATM   29  C   UNK N   1      30.694  15.984   4.889  0.00  0.00     0.043 A 
HETATM   30  C   UNK N   1      30.922  16.681   3.697  0.00  0.00     0.116 A 
HETATM   31  C   UNK N   1      32.142  17.326   3.488  0.00  0.00     0.043 A 
HETATM   32  F   UNK N   1      29.963  16.725   2.741  0.00  0.00    -0.206 F 
HETATM   33  C   UNK N   1      33.138  17.267   4.465  0.00  0.00     0.013 A 
ENDBRANCH  26  27
BRANCH  26  34
HETATM   34  O   UNK N   1      34.582  17.735   6.972  0.00  0.00    -0.294 OA
BRANCH  34  35
HETATM   35  C   UNK N   1      34.568  18.280   8.218  0.00  0.00     0.358 C 
HETATM   36  O   UNK N   1      35.265  19.254   8.483  0.00  0.00    -0.239 OA
HETATM   37  N   UNK N   1      33.789  17.748   9.174  0.00  0.00    -0.346 N 
HETATM   38  H   UNK N   1      33.320  16.890   9.053  0.00  0.00     0.161 HD
HETATM   39  H   UNK N   1      33.684  18.231  10.025  0.00  0.00     0.161 HD
ENDBRANCH  34  35
ENDBRANCH  26  34
ENDBRANCH  25  26
ENDBRANCH  24  25
ENDBRANCH   4  24
TORSDOF 11
ENDMDL
MODEL 4
REMARK VINA RESULT:      -7.7      6.313     12.253
REMARK  11 active torsions:
REMARK  status: ('A' for Active; 'I' for Inactive)
REMARK    1  A    between atoms: O_2  and  C_3 
REMARK    2  A    between atoms: C_5  and  N_34 
REMARK    3  A    between atoms: C_8  and  C_9 
REMARK       I    between atoms: C_9  and  N_11 
REMARK    4  A    between atoms: N_11  and  C_12 
REMARK    5  A    between atoms: C_12  and  C_13 
REMARK    6  A    between atoms: N_16  and  C_19 
REMARK    7  A    between atoms: C_19  and  C_20 
REMARK    8  A    between atoms: C_20  and  C_21 
REMARK    9  A    between atoms: C_21  and  C_22 
REMARK   10  A    between atoms: C_21  and  O_29 
REMARK   11  A    between atoms: O_29  and  C_30 
REMARK       I    between atoms: C_30  and  N_32 
ROOT
HETATM    1  C   UNK N   1      26.325  19.060   3.880  0.00  0.00     0.007 C 
HETATM    2  C   UNK N   1      27.556  19.892   4.243  0.00  0.00     0.036 C 
HETATM    3  C   UNK N   1      28.108  19.455   5.599  0.00  0.00     0.273 C 
HETATM    4  N   UNK N   1      28.297  18.002   5.726  0.00  0.00     0.088 N 
HETATM    5  C   UNK N   1      27.340  17.112   5.043  0.00  0.00     0.273 C 
HETATM    6  C   UNK N   1      26.826  17.643   3.702  0.00  0.00     0.036 C 
ENDROOT
BRANCH   1   7
HETATM    7  C   UNK N   1      25.195  19.091   4.938  0.00  0.00     0.127 C 
BRANCH   7   8
HETATM    8  N   UNK N   1      23.939  18.733   4.331  0.00  0.00    -0.356 N 
HETATM    9  C   UNK N   1      23.341  17.542   4.551  0.00  0.00     0.254 C 
HETATM   10  O   UNK N   1      23.797  16.785   5.394  0.00  0.00    -0.268 OA
HETATM   11  H   UNK N   1      23.500  19.380   3.733  0.00  0.00     0.162 HD
BRANCH   9  12
HETATM   12  C   UNK N   1      22.252  17.111   3.634  0.00  0.00     0.067 A 
HETATM   13  C   UNK N   1      22.412  15.844   3.045  0.00  0.00     0.046 A 
HETATM   14  C   UNK N   1      21.409  15.259   2.281  0.00  0.00     0.061 A 
HETATM   15  C   UNK N   1      20.203  15.937   2.092  0.00  0.00     0.050 A 
HETATM   16 Cl   UNK N   1      21.670  13.657   1.611  0.00  0.00    -0.082 Cl
HETATM   17  C   UNK N   1      20.026  17.205   2.645  0.00  0.00     0.068 A 
HETATM   18  C   UNK N   1      21.028  17.820   3.406  0.00  0.00     0.086 A 
BRANCH  15  19
HETATM   19  N   UNK N   1      19.162  15.350   1.344  0.00  0.00    -0.398 N 
HETATM   20  H   UNK N   1      18.402  15.890   1.028  0.00  0.00     0.156 HD
HETATM   21  H   UNK N   1      19.196  14.388   1.136  0.00  0.00     0.156 HD
ENDBRANCH  15  19
BRANCH  18  22
HETATM   22  O   UNK N   1      20.754  19.066   3.874  0.00  0.00    -0.355 OA
HETATM   23  C   UNK N   1      20.399  20.147   3.104  0.00  0.00     0.210 C 
ENDBRANCH  18  22
ENDBRANCH   9  12
ENDBRANCH   7   8
ENDBRANCH   1   7
BRANCH   4  24
HETATM   24  C   UNK N   1      29.656  17.629   5.412  0.00  0.00     0.275 C 
BRANCH  24  25
HETATM   25  C   UNK N   1      30.121  16.628   6.449  0.00  0.00     0.068 C 
BRANCH  25  26
HETATM   26  C   UNK N   1      30.459  17.395   7.711  0.00  0.00     0.168 C 
BRANCH  26  27
HETATM   27  C   UNK N   1      31.844  17.042   8.186  0.00  0.00    -0.029 A 
HETATM   28  C   UNK N   1      32.129  15.791   8.758  0.00  0.00     0.013 A 
HETATM   29  C   UNK N   1      33.417  15.508   9.223  0.00  0.00     0.043 A 
HETATM   30  C   UNK N   1      34.430  16.468   9.116  0.00  0.00     0.116 A 
HETATM   31  C   UNK N   1      34.156  17.710   8.542  0.00  0.00     0.043 A 
HETATM   32  F   UNK N   1      35.676  16.196   9.574  0.00  0.00    -0.206 F 
HETATM   33  C   UNK N   1      32.868  17.998   8.085  0.00  0.00     0.013 A 
ENDBRANCH  26  27
BRANCH  26  34
HETATM   34  O   UNK N   1      29.487  17.197   8.673  0.00  0.00    -0.294 OA
BRANCH  34  35
HETATM   35  C   UNK N   1      28.917  18.217   9.368  0.00  0.00     0.358 C 
HETATM   36  O   UNK N   1      29.558  18.833  10.214  0.00  0.00    -0.239 OA
HETATM   37  N   UNK N   1      27.639  18.556   9.135  0.00  0.00    -0.346 N 
HETATM   38  H   UNK N   1      27.044  18.010   8.571  0.00  0.00     0.161 HD
HETATM   39  H   UNK N   1      27.284  19.379   9.543  0.00  0.00     0.161 HD
ENDBRANCH  34  35
ENDBRANCH  26  34
ENDBRANCH  25  26
ENDBRANCH  24  25
ENDBRANCH   4  24
TORSDOF 11
ENDMDL
MODEL 5
REMARK VINA RESULT:      -7.7      1.916      2.803
REMARK  11 active torsions:
REMARK  status: ('A' for Active; 'I' for Inactive)
REMARK    1  A    between atoms: O_2  and  C_3 
REMARK    2  A    between atoms: C_5  and  N_34 
REMARK    3  A    between atoms: C_8  and  C_9 
REMARK       I    between atoms: C_9  and  N_11 
REMARK    4  A    between atoms: N_11  and  C_12 
REMARK    5  A    between atoms: C_12  and  C_13 
REMARK    6  A    between atoms: N_16  and  C_19 
REMARK    7  A    between atoms: C_19  and  C_20 
REMARK    8  A    between atoms: C_20  and  C_21 
REMARK    9  A    between atoms: C_21  and  C_22 
REMARK   10  A    between atoms: C_21  and  O_29 
REMARK   11  A    between atoms: O_29  and  C_30 
REMARK       I    between atoms: C_30  and  N_32 
ROOT
HETATM    1  C   UNK N   1      33.831  17.131   8.739  0.00  0.00     0.007 C 
HETATM    2  C   UNK N   1      33.856  17.974   7.464  0.00  0.00     0.036 C 
HETATM    3  C   UNK N   1      33.374  17.147   6.273  0.00  0.00     0.273 C 
HETATM    4  N   UNK N   1      32.105  16.444   6.512  0.00  0.00     0.088 N 
HETATM    5  C   UNK N   1      31.832  15.936   7.869  0.00  0.00     0.273 C 
HETATM    6  C   UNK N   1      32.372  16.820   8.996  0.00  0.00     0.036 C 
ENDROOT
BRANCH   1   7
HETATM    7  C   UNK N   1      34.642  15.815   8.655  0.00  0.00     0.127 C 
BRANCH   7   8
HETATM    8  N   UNK N   1      34.653  15.157   9.935  0.00  0.00    -0.356 N 
HETATM    9  C   UNK N   1      35.607  15.389  10.862  0.00  0.00     0.254 C 
HETATM   10  O   UNK N   1      36.420  16.282  10.680  0.00  0.00    -0.268 OA
HETATM   11  H   UNK N   1      33.937  14.513  10.143  0.00  0.00     0.162 HD
BRANCH   9  12
HETATM   12  C   UNK N   1      35.751  14.432  11.992  0.00  0.00     0.067 A 
HETATM   13  C   UNK N   1      36.366  14.940  13.151  0.00  0.00     0.046 A 
HETATM   14  C   UNK N   1      36.438  14.201  14.326  0.00  0.00     0.061 A 
HETATM   15  C   UNK N   1      35.883  12.920  14.370  0.00  0.00     0.050 A 
HETATM   16 Cl   UNK N   1      37.188  14.919  15.742  0.00  0.00    -0.082 Cl
HETATM   17  C   UNK N   1      35.288  12.383  13.229  0.00  0.00     0.068 A 
HETATM   18  C   UNK N   1      35.217  13.103  12.030  0.00  0.00     0.086 A 
BRANCH  15  19
HETATM   19  N   UNK N   1      35.920  12.165  15.559  0.00  0.00    -0.398 N 
HETATM   20  H   UNK N   1      35.801  12.598  16.435  0.00  0.00     0.156 HD
HETATM   21  H   UNK N   1      36.066  11.192  15.513  0.00  0.00     0.156 HD
ENDBRANCH  15  19
BRANCH  18  22
HETATM   22  O   UNK N   1      34.637  12.471  10.976  0.00  0.00    -0.355 OA
HETATM   23  C   UNK N   1      35.141  11.365  10.334  0.00  0.00     0.210 C 
ENDBRANCH  18  22
ENDBRANCH   9  12
ENDBRANCH   7   8
ENDBRANCH   1   7
BRANCH   4  24
HETATM   24  C   UNK N   1      30.987  17.214   6.020  0.00  0.00     0.275 C 
BRANCH  24  25
HETATM   25  C   UNK N   1      29.722  16.416   6.260  0.00  0.00     0.068 C 
BRANCH  25  26
HETATM   26  C   UNK N   1      28.685  17.358   6.836  0.00  0.00     0.168 C 
BRANCH  26  27
HETATM   27  C   UNK N   1      27.997  18.119   5.733  0.00  0.00    -0.029 A 
HETATM   28  C   UNK N   1      28.168  19.504   5.578  0.00  0.00     0.013 A 
HETATM   29  C   UNK N   1      27.485  20.188   4.566  0.00  0.00     0.043 A 
HETATM   30  C   UNK N   1      26.633  19.493   3.700  0.00  0.00     0.116 A 
HETATM   31  C   UNK N   1      26.464  18.115   3.844  0.00  0.00     0.043 A 
HETATM   32  F   UNK N   1      25.965  20.157   2.725  0.00  0.00    -0.206 F 
HETATM   33  C   UNK N   1      27.138  17.433   4.859  0.00  0.00     0.013 A 
ENDBRANCH  26  27
BRANCH  26  34
HETATM   34  O   UNK N   1      29.254  18.179   7.791  0.00  0.00    -0.294 OA
BRANCH  34  35
HETATM   35  C   UNK N   1      28.882  18.157   9.099  0.00  0.00     0.358 C 
HETATM   36  O   UNK N   1      27.812  17.662   9.437  0.00  0.00    -0.239 OA
HETATM   37  N   UNK N   1      29.687  18.687  10.034  0.00  0.00    -0.346 N 
HETATM   38  H   UNK N   1      30.486  19.216   9.802  0.00  0.00     0.161 HD
HETATM   39  H   UNK N   1      29.473  18.543  10.984  0.00  0.00     0.161 HD
ENDBRANCH  34  35
ENDBRANCH  26  34
ENDBRANCH  25  26
ENDBRANCH  24  25
ENDBRANCH   4  24
TORSDOF 11
ENDMDL
MODEL 6
REMARK VINA RESULT:      -7.5      8.880     11.279
REMARK  11 active torsions:
REMARK  status: ('A' for Active; 'I' for Inactive)
REMARK    1  A    between atoms: O_2  and  C_3 
REMARK    2  A    between atoms: C_5  and  N_34 
REMARK    3  A    between atoms: C_8  and  C_9 
REMARK       I    between atoms: C_9  and  N_11 
REMARK    4  A    between atoms: N_11  and  C_12 
REMARK    5  A    between atoms: C_12  and  C_13 
REMARK    6  A    between atoms: N_16  and  C_19 
REMARK    7  A    between atoms: C_19  and  C_20 
REMARK    8  A    between atoms: C_20  and  C_21 
REMARK    9  A    between atoms: C_21  and  C_22 
REMARK   10  A    between atoms: C_21  and  O_29 
REMARK   11  A    between atoms: O_29  and  C_30 
REMARK       I    between atoms: C_30  and  N_32 
ROOT
HETATM    1  C   UNK N   1      21.817  14.308   3.376  0.00  0.00     0.007 C 
HETATM    2  C   UNK N   1      21.096  14.674   2.078  0.00  0.00     0.036 C 
HETATM    3  C   UNK N   1      19.866  15.529   2.378  0.00  0.00     0.273 C 
HETATM    4  N   UNK N   1      20.136  16.669   3.266  0.00  0.00     0.088 N 
HETATM    5  C   UNK N   1      21.146  16.504   4.327  0.00  0.00     0.273 C 
HETATM    6  C   UNK N   1      22.330  15.615   3.941  0.00  0.00     0.036 C 
ENDROOT
BRANCH   1   7
HETATM    7  C   UNK N   1      20.928  13.594   4.424  0.00  0.00     0.127 C 
BRANCH   7   8
HETATM    8  N   UNK N   1      21.721  13.199   5.558  0.00  0.00    -0.356 N 
HETATM    9  C   UNK N   1      21.343  13.449   6.831  0.00  0.00     0.254 C 
HETATM   10  O   UNK N   1      20.231  13.904   7.050  0.00  0.00    -0.268 OA
HETATM   11  H   UNK N   1      22.572  12.728   5.402  0.00  0.00     0.162 HD
BRANCH   9  12
HETATM   12  C   UNK N   1      22.358  13.333   7.912  0.00  0.00     0.067 A 
HETATM   13  C   UNK N   1      21.878  12.883   9.156  0.00  0.00     0.046 A 
HETATM   14  C   UNK N   1      22.737  12.595  10.211  0.00  0.00     0.061 A 
HETATM   15  C   UNK N   1      24.115  12.747  10.040  0.00  0.00     0.050 A 
HETATM   16 Cl   UNK N   1      22.066  12.002  11.721  0.00  0.00    -0.082 Cl
HETATM   17  C   UNK N   1      24.615  13.213   8.824  0.00  0.00     0.068 A 
HETATM   18  C   UNK N   1      23.768  13.524   7.753  0.00  0.00     0.086 A 
BRANCH  15  19
HETATM   19  N   UNK N   1      25.005  12.434  11.087  0.00  0.00    -0.398 N 
HETATM   20  H   UNK N   1      24.685  12.363  12.015  0.00  0.00     0.156 HD
HETATM   21  H   UNK N   1      25.957  12.284  10.886  0.00  0.00     0.156 HD
ENDBRANCH  15  19
BRANCH  18  22
HETATM   22  O   UNK N   1      24.365  13.993   6.625  0.00  0.00    -0.355 OA
HETATM   23  C   UNK N   1      25.643  13.694   6.216  0.00  0.00     0.210 C 
ENDBRANCH  18  22
ENDBRANCH   9  12
ENDBRANCH   7   8
ENDBRANCH   1   7
BRANCH   4  24
HETATM   24  C   UNK N   1      20.386  17.870   2.504  0.00  0.00     0.275 C 
BRANCH  24  25
HETATM   25  C   UNK N   1      21.110  18.854   3.398  0.00  0.00     0.068 C 
BRANCH  25  26
HETATM   26  C   UNK N   1      22.022  19.688   2.523  0.00  0.00     0.168 C 
BRANCH  26  27
HETATM   27  C   UNK N   1      23.396  19.783   3.135  0.00  0.00    -0.029 A 
HETATM   28  C   UNK N   1      24.395  20.594   2.576  0.00  0.00     0.013 A 
HETATM   29  C   UNK N   1      25.672  20.631   3.147  0.00  0.00     0.043 A 
HETATM   30  C   UNK N   1      25.956  19.863   4.283  0.00  0.00     0.116 A 
HETATM   31  C   UNK N   1      24.964  19.060   4.848  0.00  0.00     0.043 A 
HETATM   32  F   UNK N   1      27.195  19.893   4.831  0.00  0.00    -0.206 F 
HETATM   33  C   UNK N   1      23.692  19.015   4.274  0.00  0.00     0.013 A 
ENDBRANCH  26  27
BRANCH  26  34
HETATM   34  O   UNK N   1      21.454  20.922   2.268  0.00  0.00    -0.294 OA
BRANCH  34  35
HETATM   35  C   UNK N   1      20.897  21.245   1.070  0.00  0.00     0.358 C 
HETATM   36  O   UNK N   1      21.119  20.565   0.073  0.00  0.00    -0.239 OA
HETATM   37  N   UNK N   1      20.101  22.321   0.969  0.00  0.00    -0.346 N 
HETATM   38  H   UNK N   1      20.003  22.974   1.701  0.00  0.00     0.161 HD
HETATM   39  H   UNK N   1      19.598  22.464   0.135  0.00  0.00     0.161 HD
ENDBRANCH  34  35
ENDBRANCH  26  34
ENDBRANCH  25  26
ENDBRANCH  24  25
ENDBRANCH   4  24
TORSDOF 11
ENDMDL
MODEL 7
REMARK VINA RESULT:      -7.4      2.371      3.280
REMARK  11 active torsions:
REMARK  status: ('A' for Active; 'I' for Inactive)
REMARK    1  A    between atoms: O_2  and  C_3 
REMARK    2  A    between atoms: C_5  and  N_34 
REMARK    3  A    between atoms: C_8  and  C_9 
REMARK       I    between atoms: C_9  and  N_11 
REMARK    4  A    between atoms: N_11  and  C_12 
REMARK    5  A    between atoms: C_12  and  C_13 
REMARK    6  A    between atoms: N_16  and  C_19 
REMARK    7  A    between atoms: C_19  and  C_20 
REMARK    8  A    between atoms: C_20  and  C_21 
REMARK    9  A    between atoms: C_21  and  C_22 
REMARK   10  A    between atoms: C_21  and  O_29 
REMARK   11  A    between atoms: O_29  and  C_30 
REMARK       I    between atoms: C_30  and  N_32 
ROOT
HETATM    1  C   UNK N   1      34.601  15.931   8.365  0.00  0.00     0.007 C 
HETATM    2  C   UNK N   1      33.562  14.812   8.292  0.00  0.00     0.036 C 
HETATM    3  C   UNK N   1      32.155  15.383   8.464  0.00  0.00     0.273 C 
HETATM    4  N   UNK N   1      31.870  16.535   7.595  0.00  0.00     0.088 N 
HETATM    5  C   UNK N   1      32.969  17.469   7.291  0.00  0.00     0.273 C 
HETATM    6  C   UNK N   1      34.344  16.808   7.158  0.00  0.00     0.036 C 
ENDROOT
BRANCH   1   7
HETATM    7  C   UNK N   1      34.538  16.783   9.657  0.00  0.00     0.127 C 
BRANCH   7   8
HETATM    8  N   UNK N   1      34.532  15.927  10.814  0.00  0.00    -0.356 N 
HETATM    9  C   UNK N   1      35.668  15.533  11.431  0.00  0.00     0.254 C 
HETATM   10  O   UNK N   1      36.736  16.018  11.092  0.00  0.00    -0.268 OA
HETATM   11  H   UNK N   1      33.668  15.615  11.170  0.00  0.00     0.162 HD
BRANCH   9  12
HETATM   12  C   UNK N   1      35.604  14.389  12.379  0.00  0.00     0.067 A 
HETATM   13  C   UNK N   1      34.977  13.227  11.896  0.00  0.00     0.046 A 
HETATM   14  C   UNK N   1      34.972  12.041  12.622  0.00  0.00     0.061 A 
HETATM   15  C   UNK N   1      35.610  11.990  13.863  0.00  0.00     0.050 A 
HETATM   16 Cl   UNK N   1      34.200  10.621  11.934  0.00  0.00    -0.082 Cl
HETATM   17  C   UNK N   1      36.220  13.135  14.377  0.00  0.00     0.068 A 
HETATM   18  C   UNK N   1      36.225  14.344  13.670  0.00  0.00     0.086 A 
BRANCH  15  19
HETATM   19  N   UNK N   1      35.641  10.791  14.603  0.00  0.00    -0.398 N 
HETATM   20  H   UNK N   1      35.690   9.920  14.148  0.00  0.00     0.156 HD
HETATM   21  H   UNK N   1      35.613  10.826  15.587  0.00  0.00     0.156 HD
ENDBRANCH  15  19
BRANCH  18  22
HETATM   22  O   UNK N   1      36.828  15.399  14.278  0.00  0.00    -0.355 OA
HETATM   23  C   UNK N   1      37.256  15.428  15.584  0.00  0.00     0.210 C 
ENDBRANCH  18  22
ENDBRANCH   9  12
ENDBRANCH   7   8
ENDBRANCH   1   7
BRANCH   4  24
HETATM   24  C   UNK N   1      31.205  16.116   6.384  0.00  0.00     0.275 C 
BRANCH  24  25
HETATM   25  C   UNK N   1      30.530  17.327   5.774  0.00  0.00     0.068 C 
BRANCH  25  26
HETATM   26  C   UNK N   1      29.196  17.510   6.465  0.00  0.00     0.168 C 
BRANCH  26  27
HETATM   27  C   UNK N   1      28.166  18.025   5.493  0.00  0.00    -0.029 A 
HETATM   28  C   UNK N   1      27.168  17.190   4.968  0.00  0.00     0.013 A 
HETATM   29  C   UNK N   1      26.249  17.690   4.039  0.00  0.00     0.043 A 
HETATM   30  C   UNK N   1      26.319  19.028   3.633  0.00  0.00     0.116 A 
HETATM   31  C   UNK N   1      27.305  19.866   4.157  0.00  0.00     0.043 A 
HETATM   32  F   UNK N   1      25.435  19.510   2.727  0.00  0.00    -0.206 F 
HETATM   33  C   UNK N   1      28.227  19.365   5.078  0.00  0.00     0.013 A 
ENDBRANCH  26  27
BRANCH  26  34
HETATM   34  O   UNK N   1      29.335  18.308   7.584  0.00  0.00    -0.294 OA
BRANCH  34  35
HETATM   35  C   UNK N   1      28.701  18.050   8.759  0.00  0.00     0.358 C 
HETATM   36  O   UNK N   1      29.224  17.338   9.610  0.00  0.00    -0.239 OA
HETATM   37  N   UNK N   1      27.486  18.573   8.994  0.00  0.00    -0.346 N 
HETATM   38  H   UNK N   1      26.967  19.034   8.294  0.00  0.00     0.161 HD
HETATM   39  H   UNK N   1      27.100  18.493   9.896  0.00  0.00     0.161 HD
ENDBRANCH  34  35
ENDBRANCH  26  34
ENDBRANCH  25  26
ENDBRANCH  24  25
ENDBRANCH   4  24
TORSDOF 11
ENDMDL
MODEL 8
REMARK VINA RESULT:      -7.3      2.800      3.783
REMARK  11 active torsions:
REMARK  status: ('A' for Active; 'I' for Inactive)
REMARK    1  A    between atoms: O_2  and  C_3 
REMARK    2  A    between atoms: C_5  and  N_34 
REMARK    3  A    between atoms: C_8  and  C_9 
REMARK       I    between atoms: C_9  and  N_11 
REMARK    4  A    between atoms: N_11  and  C_12 
REMARK    5  A    between atoms: C_12  and  C_13 
REMARK    6  A    between atoms: N_16  and  C_19 
REMARK    7  A    between atoms: C_19  and  C_20 
REMARK    8  A    between atoms: C_20  and  C_21 
REMARK    9  A    between atoms: C_21  and  C_22 
REMARK   10  A    between atoms: C_21  and  O_29 
REMARK   11  A    between atoms: O_29  and  C_30 
REMARK       I    between atoms: C_30  and  N_32 
ROOT
HETATM    1  C   UNK N   1      34.172  12.839   9.071  0.00  0.00     0.007 C 
HETATM    2  C   UNK N   1      33.636  14.267   8.967  0.00  0.00     0.036 C 
HETATM    3  C   UNK N   1      34.688  15.183   8.344  0.00  0.00     0.273 C 
HETATM    4  N   UNK N   1      35.272  14.660   7.100  0.00  0.00     0.088 N 
HETATM    5  C   UNK N   1      35.454  13.202   6.973  0.00  0.00     0.273 C 
HETATM    6  C   UNK N   1      34.362  12.367   7.646  0.00  0.00     0.036 C 
ENDROOT
BRANCH   1   7
HETATM    7  C   UNK N   1      35.505  12.709   9.851  0.00  0.00     0.127 C 
BRANCH   7   8
HETATM    8  N   UNK N   1      35.260  12.785  11.267  0.00  0.00    -0.356 N 
HETATM    9  C   UNK N   1      35.812  13.739  12.048  0.00  0.00     0.254 C 
HETATM   10  O   UNK N   1      36.434  14.654  11.532  0.00  0.00    -0.268 OA
HETATM   11  H   UNK N   1      34.667  12.117  11.683  0.00  0.00     0.162 HD
BRANCH   9  12
HETATM   12  C   UNK N   1      35.800  13.547  13.523  0.00  0.00     0.067 A 
HETATM   13  C   UNK N   1      36.566  14.464  14.266  0.00  0.00     0.046 A 
HETATM   14  C   UNK N   1      36.533  14.489  15.655  0.00  0.00     0.061 A 
HETATM   15  C   UNK N   1      35.716  13.588  16.342  0.00  0.00     0.050 A 
HETATM   16 Cl   UNK N   1      37.489  15.688  16.511  0.00  0.00    -0.082 Cl
HETATM   17  C   UNK N   1      34.964  12.653  15.631  0.00  0.00     0.068 A 
HETATM   18  C   UNK N   1      34.992  12.600  14.232  0.00  0.00     0.086 A 
BRANCH  15  19
HETATM   19  N   UNK N   1      35.647  13.614  17.749  0.00  0.00    -0.398 N 
HETATM   20  H   UNK N   1      34.957  14.145  18.210  0.00  0.00     0.156 HD
HETATM   21  H   UNK N   1      36.295  13.095  18.278  0.00  0.00     0.156 HD
ENDBRANCH  15  19
BRANCH  18  22
HETATM   22  O   UNK N   1      34.238  11.633  13.647  0.00  0.00    -0.355 OA
HETATM   23  C   UNK N   1      33.616  10.598  14.306  0.00  0.00     0.210 C 
ENDBRANCH  18  22
ENDBRANCH   9  12
ENDBRANCH   7   8
ENDBRANCH   1   7
BRANCH   4  24
HETATM   24  C   UNK N   1      34.589  15.193   5.945  0.00  0.00     0.275 C 
BRANCH  24  25
HETATM   25  C   UNK N   1      34.328  16.664   6.188  0.00  0.00     0.068 C 
BRANCH  25  26
HETATM   26  C   UNK N   1      33.045  17.029   5.471  0.00  0.00     0.168 C 
BRANCH  26  27
HETATM   27  C   UNK N   1      31.927  17.224   6.463  0.00  0.00    -0.029 A 
HETATM   28  C   UNK N   1      30.584  17.022   6.105  0.00  0.00     0.013 A 
HETATM   29  C   UNK N   1      29.567  17.248   7.039  0.00  0.00     0.043 A 
HETATM   30  C   UNK N   1      29.884  17.670   8.335  0.00  0.00     0.116 A 
HETATM   31  C   UNK N   1      31.217  17.865   8.699  0.00  0.00     0.043 A 
HETATM   32  F   UNK N   1      28.898  17.896   9.237  0.00  0.00    -0.206 F 
HETATM   33  C   UNK N   1      32.233  17.649   7.766  0.00  0.00     0.013 A 
ENDBRANCH  26  27
BRANCH  26  34
HETATM   34  O   UNK N   1      32.751  16.094   4.497  0.00  0.00    -0.294 OA
BRANCH  34  35
HETATM   35  C   UNK N   1      32.762  16.385   3.168  0.00  0.00     0.358 C 
HETATM   36  O   UNK N   1      33.585  15.867   2.421  0.00  0.00    -0.239 OA
HETATM   37  N   UNK N   1      31.868  17.251   2.664  0.00  0.00    -0.346 N 
HETATM   38  H   UNK N   1      31.281  17.795   3.239  0.00  0.00     0.161 HD
HETATM   39  H   UNK N   1      31.797  17.347   1.687  0.00  0.00     0.161 HD
ENDBRANCH  34  35
ENDBRANCH  26  34
ENDBRANCH  25  26
ENDBRANCH  24  25
ENDBRANCH   4  24
TORSDOF 11
ENDMDL
MODEL 9
REMARK VINA RESULT:      -7.3      4.669     11.127
REMARK  11 active torsions:
REMARK  status: ('A' for Active; 'I' for Inactive)
REMARK    1  A    between atoms: O_2  and  C_3 
REMARK    2  A    between atoms: C_5  and  N_34 
REMARK    3  A    between atoms: C_8  and  C_9 
REMARK       I    between atoms: C_9  and  N_11 
REMARK    4  A    between atoms: N_11  and  C_12 
REMARK    5  A    between atoms: C_12  and  C_13 
REMARK    6  A    between atoms: N_16  and  C_19 
REMARK    7  A    between atoms: C_19  and  C_20 
REMARK    8  A    between atoms: C_20  and  C_21 
REMARK    9  A    between atoms: C_21  and  C_22 
REMARK   10  A    between atoms: C_21  and  O_29 
REMARK   11  A    between atoms: O_29  and  C_30 
REMARK       I    between atoms: C_30  and  N_32 
ROOT
HETATM    1  C   UNK N   1      35.701  15.132   9.476  0.00  0.00     0.007 C 
HETATM    2  C   UNK N   1      36.732  15.108  10.605  0.00  0.00     0.036 C 
HETATM    3  C   UNK N   1      36.035  14.960  11.956  0.00  0.00     0.273 C 
HETATM    4  N   UNK N   1      35.055  13.865  12.004  0.00  0.00     0.088 N 
HETATM    5  C   UNK N   1      34.282  13.565  10.784  0.00  0.00     0.273 C 
HETATM    6  C   UNK N   1      35.058  13.762   9.479  0.00  0.00     0.036 C 
ENDROOT
BRANCH   1   7
HETATM    7  C   UNK N   1      34.613  16.225   9.624  0.00  0.00     0.127 C 
BRANCH   7   8
HETATM    8  N   UNK N   1      33.796  16.274   8.440  0.00  0.00    -0.356 N 
HETATM    9  C   UNK N   1      33.505  17.432   7.808  0.00  0.00     0.254 C 
HETATM   10  O   UNK N   1      34.053  18.464   8.159  0.00  0.00    -0.268 OA
HETATM   11  H   UNK N   1      33.436  15.432   8.077  0.00  0.00     0.162 HD
BRANCH   9  12
HETATM   12  C   UNK N   1      32.390  17.444   6.823  0.00  0.00     0.067 A 
HETATM   13  C   UNK N   1      32.768  17.394   5.469  0.00  0.00     0.046 A 
HETATM   14  C   UNK N   1      31.831  17.258   4.451  0.00  0.00     0.061 A 
HETATM   15  C   UNK N   1      30.475  17.162   4.771  0.00  0.00     0.050 A 
HETATM   16 Cl   UNK N   1      32.385  17.164   2.787  0.00  0.00    -0.082 Cl
HETATM   17  C   UNK N   1      30.070  17.232   6.104  0.00  0.00     0.068 A 
HETATM   18  C   UNK N   1      30.995  17.383   7.144  0.00  0.00     0.086 A 
BRANCH  15  19
HETATM   19  N   UNK N   1      29.511  16.996   3.757  0.00  0.00    -0.398 N 
HETATM   20  H   UNK N   1      29.619  16.301   3.068  0.00  0.00     0.156 HD
HETATM   21  H   UNK N   1      28.719  17.581   3.738  0.00  0.00     0.156 HD
ENDBRANCH  15  19
BRANCH  18  22
HETATM   22  O   UNK N   1      30.485  17.465   8.401  0.00  0.00    -0.355 OA
HETATM   23  C   UNK N   1      30.265  18.629   9.099  0.00  0.00     0.210 C 
ENDBRANCH  18  22
ENDBRANCH   9  12
ENDBRANCH   7   8
ENDBRANCH   1   7
BRANCH   4  24
HETATM   24  C   UNK N   1      35.648  12.663  12.541  0.00  0.00     0.275 C 
BRANCH  24  25
HETATM   25  C   UNK N   1      34.914  12.302  13.815  0.00  0.00     0.068 C 
BRANCH  25  26
HETATM   26  C   UNK N   1      35.952  12.035  14.885  0.00  0.00     0.168 C 
BRANCH  26  27
HETATM   27  C   UNK N   1      36.082  13.227  15.799  0.00  0.00    -0.029 A 
HETATM   28  C   UNK N   1      36.960  14.282  15.508  0.00  0.00     0.013 A 
HETATM   29  C   UNK N   1      37.086  15.357  16.396  0.00  0.00     0.043 A 
HETATM   30  C   UNK N   1      36.332  15.386  17.575  0.00  0.00     0.116 A 
HETATM   31  C   UNK N   1      35.451  14.343  17.866  0.00  0.00     0.043 A 
HETATM   32  F   UNK N   1      36.460  16.422  18.438  0.00  0.00    -0.206 F 
HETATM   33  C   UNK N   1      35.332  13.266  16.985  0.00  0.00     0.013 A 
ENDBRANCH  26  27
BRANCH  26  34
HETATM   34  O   UNK N   1      37.151  11.654  14.314  0.00  0.00    -0.294 OA
BRANCH  34  35
HETATM   35  C   UNK N   1      37.678  10.409  14.465  0.00  0.00     0.358 C 
HETATM   36  O   UNK N   1      38.264   9.860  13.538  0.00  0.00    -0.239 OA
HETATM   37  N   UNK N   1      37.555   9.768  15.638  0.00  0.00    -0.346 N 
HETATM   38  H   UNK N   1      36.979  10.104  16.364  0.00  0.00     0.161 HD
HETATM   39  H   UNK N   1      38.056   8.932  15.778  0.00  0.00     0.161 HD
ENDBRANCH  34  35
ENDBRANCH  26  34
ENDBRANCH  25  26
ENDBRANCH  24  25
ENDBRANCH   4  24
TORSDOF 11
ENDMDL
