REMARK  2 active torsions:
REMARK  status: ('A' for Active; 'I' for Inactive)
REMARK    1  A    between atoms: O_3  and  N_1 
REMARK    2  A    between atoms: O_5  and  N_1 
ROOT
HETATM    1  N   UNK N   1       2.698  -3.038   0.000  0.00  0.00    -0.177 N 
ATOM      2  HN  UNK N   1       2.185  -3.920   0.000  1.00  0.00     0.223 HD
ENDROOT
BRANCH   1   3
HETATM    3  O   UNK N   1       4.013  -3.042   0.000  0.00  0.00    -0.270 OA
ATOM      4  HO  UNK N   1       4.485  -3.866   0.000  1.00  0.00     0.246 HD
ENDBRANCH   1   3
BRANCH   1   5
HETATM    5  O   UNK N   1       2.106  -2.004   0.000  0.00  0.00    -0.270 OA
ATOM      6  HO  UNK N   1       1.156  -2.001   0.000  1.00  0.00     0.246 HD
ENDBRANCH   1   5
TORSDOF 2
