REMARK  4 active torsions:
REMARK  status: ('A' for Active; 'I' for Inactive)
REMARK    1  A    between atoms: C_2  and  C_3 
REMARK    2  A    between atoms: C_2  and  N_9 
REMARK       I    between atoms: N_9  and  C_10 
REMARK    3  A    between atoms: C_10  and  C_12 
REMARK    4  A    between atoms: C_13  and  C_14 
ROOT
HETATM    1  C   UNK N   1       4.934  -1.217   0.344  0.00  0.00     0.114 C 
HETATM    2  C   UNK N   1       5.138   0.044   0.166  0.00  0.00     0.058 C 
HETATM    3  C   UNK N   1       5.991  -2.256   0.295  0.00  0.00     0.105 C 
HETATM    4  N   UNK N   1       6.854  -3.037   0.250  0.00  0.00    -0.191 NA
ENDROOT
BRANCH   1   5
HETATM    5  C   UNK N   1       3.523  -1.447   0.434  0.00  0.00     0.262 C 
HETATM    6  N   UNK N   1       3.102  -2.655   0.622  0.00  0.00    -0.348 N 
HETATM    7  H   UNK N   1       3.329  -3.168   1.431  0.00  0.00     0.163 HD
HETATM    8  O   UNK N   1       2.731  -0.585   0.055  0.00  0.00    -0.267 OA
BRANCH   6   9
HETATM    9  C   UNK N   1       2.299  -3.187  -0.402  0.00  0.00     0.114 C 
HETATM   10  C   UNK N   1       0.837  -2.969  -0.055  0.00  0.00     0.037 C 
BRANCH   9  11
HETATM   11  C   UNK N   1       2.822  -4.549  -0.456  0.00  0.00    -0.036 A 
HETATM   12  C   UNK N   1       4.216  -4.731  -0.607  0.00  0.00     0.009 A 
HETATM   13  C   UNK N   1       4.788  -5.965  -0.333  0.00  0.00     0.001 A 
HETATM   14  C   UNK N   1       3.969  -7.015   0.082  0.00  0.00     0.000 A 
HETATM   15  C   UNK N   1       2.586  -6.836   0.196  0.00  0.00     0.001 A 
HETATM   16  C   UNK N   1       2.017  -5.597  -0.055  0.00  0.00     0.009 A 
ENDBRANCH   9  11
ENDBRANCH   6   9
ENDBRANCH   1   5
BRANCH   2  17
HETATM   17  C   UNK N   1       6.295   0.721  -0.034  0.00  0.00     0.034 A 
HETATM   18  C   UNK N   1       6.194   2.092  -0.011  0.00  0.00     0.029 A 
HETATM   19  C   UNK N   1       7.352   2.828  -0.055  0.00  0.00     0.005 A 
HETATM   20  C   UNK N   1       8.584   2.162  -0.101  0.00  0.00     0.037 A 
HETATM   21  C   UNK N   1       8.612   0.759  -0.138  0.00  0.00     0.080 A 
HETATM   22  N   UNK N   1       7.467   0.074  -0.100  0.00  0.00    -0.350 N 
HETATM   23 Br   UNK N   1      10.213  -0.240  -0.099  0.00  0.00    -0.031 Br
ATOM     24  HN  UNK N   1       7.483  -0.945  -0.122  1.00  0.00     0.166 HD
ENDBRANCH   2  17
TORSDOF 4
