MODEL 1
REMARK VINA RESULT:      -7.6      0.000      0.000
REMARK  3 active torsions:
REMARK  status: ('A' for Active; 'I' for Inactive)
REMARK    1  A    between atoms: C_6  and  N_7 
REMARK       I    between atoms: N_7  and  C_8 
REMARK       I    between atoms: C_8  and  N_10 
REMARK    2  A    between atoms: N_10  and  S_11 
REMARK    3  A    between atoms: S_11  and  C_14 
ROOT
HETATM    1  N   UNK N   1      34.887  15.552   9.367  0.00  0.00    -0.308 N 
HETATM    2  C   UNK N   1      35.070  16.895   9.410  0.00  0.00     0.334 C 
HETATM    3  O   UNK N   1      35.725  17.395  10.315  0.00  0.00    -0.246 OA
HETATM    4  N   UNK N   1      34.583  17.700   8.438  0.00  0.00    -0.232 N 
HETATM    5  H   UNK N   1      34.409  15.159   8.600  0.00  0.00     0.170 HD
HETATM    6  H   UNK N   1      34.739  18.668   8.532  0.00  0.00     0.183 HD
ENDROOT
BRANCH   4   7
HETATM    7  S   UNK N   1      33.692  17.159   7.019  0.00  0.00     0.266 S 
HETATM    8  O   UNK N   1      34.155  17.996   5.816  0.00  0.00    -0.200 OA
HETATM    9  O   UNK N   1      34.299  15.781   6.716  0.00  0.00    -0.200 OA
BRANCH   7  10
HETATM   10  C   UNK N   1      31.924  17.080   7.253  0.00  0.00     0.080 A 
HETATM   11  C   UNK N   1      31.095  16.680   6.185  0.00  0.00     0.028 A 
HETATM   12  C   UNK N   1      29.698  16.702   6.332  0.00  0.00     0.039 A 
HETATM   13  C   UNK N   1      29.172  17.135   7.548  0.00  0.00     0.075 A 
HETATM   14  C   UNK N   1      29.965  17.517   8.574  0.00  0.00    -0.021 A 
HETATM   15  O   UNK N   1      27.882  17.239   7.850  0.00  0.00    -0.350 OA
HETATM   16  C   UNK N   1      31.355  17.507   8.465  0.00  0.00     0.035 A 
HETATM   17  C   UNK N   1      29.137  17.932   9.724  0.00  0.00     0.068 A 
HETATM   18  C   UNK N   1      27.708  17.717   9.142  0.00  0.00     0.180 A 
ENDBRANCH   7  10
ENDBRANCH   4   7
BRANCH   1  19
HETATM   19  C   UNK N   1      35.361  14.698  10.391  0.00  0.00     0.038 A 
HETATM   20  C   UNK N   1      36.563  14.021  10.199  0.00  0.00     0.055 A 
HETATM   21  C   UNK N   1      37.120  13.263  11.226  0.00  0.00     0.058 A 
HETATM   22  C   UNK N   1      36.457  13.162  12.462  0.00  0.00     0.055 A 
HETATM   23 Cl   UNK N   1      38.669  12.487  10.949  0.00  0.00    -0.082 Cl
HETATM   24  C   UNK N   1      35.238  13.823  12.651  0.00  0.00     0.028 A 
HETATM   25 Cl   UNK N   1      37.142  12.236  13.787  0.00  0.00    -0.083 Cl
HETATM   26  C   UNK N   1      34.695  14.602  11.624  0.00  0.00     0.031 A 
ENDBRANCH   1  19
TORSDOF 3
ENDMDL
MODEL 2
REMARK VINA RESULT:      -7.6     11.333     12.965
REMARK  3 active torsions:
REMARK  status: ('A' for Active; 'I' for Inactive)
REMARK    1  A    between atoms: C_6  and  N_7 
REMARK       I    between atoms: N_7  and  C_8 
REMARK       I    between atoms: C_8  and  N_10 
REMARK    2  A    between atoms: N_10  and  S_11 
REMARK    3  A    between atoms: S_11  and  C_14 
ROOT
HETATM    1  N   UNK N   1      21.417  14.613   8.048  0.00  0.00    -0.308 N 
HETATM    2  C   UNK N   1      20.859  14.167   6.895  0.00  0.00     0.334 C 
HETATM    3  O   UNK N   1      20.478  13.008   6.807  0.00  0.00    -0.246 OA
HETATM    4  N   UNK N   1      20.664  14.997   5.844  0.00  0.00    -0.232 N 
HETATM    5  H   UNK N   1      21.664  15.564   8.123  0.00  0.00     0.170 HD
HETATM    6  H   UNK N   1      20.265  14.611   5.031  0.00  0.00     0.183 HD
ENDROOT
BRANCH   4   7
HETATM    7  S   UNK N   1      21.068  16.711   5.812  0.00  0.00     0.266 S 
HETATM    8  O   UNK N   1      20.370  17.389   7.001  0.00  0.00    -0.200 OA
HETATM    9  O   UNK N   1      22.544  16.742   6.232  0.00  0.00    -0.200 OA
BRANCH   7  10
HETATM   10  C   UNK N   1      20.801  17.493   4.229  0.00  0.00     0.080 A 
HETATM   11  C   UNK N   1      20.411  16.713   3.121  0.00  0.00     0.028 A 
HETATM   12  C   UNK N   1      20.287  17.304   1.853  0.00  0.00     0.039 A 
HETATM   13  C   UNK N   1      20.568  18.664   1.731  0.00  0.00     0.075 A 
HETATM   14  C   UNK N   1      20.940  19.414   2.793  0.00  0.00    -0.021 A 
HETATM   15  O   UNK N   1      20.523  19.376   0.610  0.00  0.00    -0.350 OA
HETATM   16  C   UNK N   1      21.072  18.863   4.066  0.00  0.00     0.035 A 
HETATM   17  C   UNK N   1      21.180  20.808   2.366  0.00  0.00     0.068 A 
HETATM   18  C   UNK N   1      20.876  20.698   0.843  0.00  0.00     0.180 A 
ENDBRANCH   7  10
ENDBRANCH   4   7
BRANCH   1  19
HETATM   19  C   UNK N   1      21.659  13.752   9.145  0.00  0.00     0.038 A 
HETATM   20  C   UNK N   1      22.967  13.359   9.415  0.00  0.00     0.055 A 
HETATM   21  C   UNK N   1      23.260  12.607  10.551  0.00  0.00     0.058 A 
HETATM   22  C   UNK N   1      22.226  12.226  11.425  0.00  0.00     0.055 A 
HETATM   23 Cl   UNK N   1      24.934  12.198  10.875  0.00  0.00    -0.082 Cl
HETATM   24  C   UNK N   1      20.907  12.601  11.144  0.00  0.00     0.028 A 
HETATM   25 Cl   UNK N   1      22.561  11.300  12.878  0.00  0.00    -0.083 Cl
HETATM   26  C   UNK N   1      20.622  13.374  10.015  0.00  0.00     0.031 A 
ENDBRANCH   1  19
TORSDOF 3
ENDMDL
MODEL 3
REMARK VINA RESULT:      -7.5      5.276      6.967
REMARK  3 active torsions:
REMARK  status: ('A' for Active; 'I' for Inactive)
REMARK    1  A    between atoms: C_6  and  N_7 
REMARK       I    between atoms: N_7  and  C_8 
REMARK       I    between atoms: C_8  and  N_10 
REMARK    2  A    between atoms: N_10  and  S_11 
REMARK    3  A    between atoms: S_11  and  C_14 
ROOT
HETATM    1  N   UNK N   1      30.281  17.145   6.165  0.00  0.00    -0.308 N 
HETATM    2  C   UNK N   1      30.188  17.475   4.853  0.00  0.00     0.334 C 
HETATM    3  O   UNK N   1      31.142  17.300   4.107  0.00  0.00    -0.246 OA
HETATM    4  N   UNK N   1      29.034  17.952   4.331  0.00  0.00    -0.232 N 
HETATM    5  H   UNK N   1      29.485  17.235   6.738  0.00  0.00     0.170 HD
HETATM    6  H   UNK N   1      29.033  18.185   3.374  0.00  0.00     0.183 HD
ENDROOT
BRANCH   4   7
HETATM    7  S   UNK N   1      27.535  18.191   5.223  0.00  0.00     0.266 S 
HETATM    8  O   UNK N   1      27.144  16.852   5.868  0.00  0.00    -0.200 OA
HETATM    9  O   UNK N   1      27.967  19.029   6.435  0.00  0.00    -0.200 OA
BRANCH   7  10
HETATM   10  C   UNK N   1      26.244  18.986   4.281  0.00  0.00     0.080 A 
HETATM   11  C   UNK N   1      26.557  20.084   3.453  0.00  0.00     0.028 A 
HETATM   12  C   UNK N   1      25.535  20.772   2.778  0.00  0.00     0.039 A 
HETATM   13  C   UNK N   1      24.222  20.343   2.963  0.00  0.00     0.075 A 
HETATM   14  C   UNK N   1      23.919  19.289   3.754  0.00  0.00    -0.021 A 
HETATM   15  O   UNK N   1      23.138  20.887   2.422  0.00  0.00    -0.350 OA
HETATM   16  C   UNK N   1      24.907  18.581   4.437  0.00  0.00     0.035 A 
HETATM   17  C   UNK N   1      22.458  19.071   3.766  0.00  0.00     0.068 A 
HETATM   18  C   UNK N   1      21.989  20.221   2.827  0.00  0.00     0.180 A 
ENDBRANCH   7  10
ENDBRANCH   4   7
BRANCH   1  19
HETATM   19  C   UNK N   1      31.489  16.675   6.735  0.00  0.00     0.038 A 
HETATM   20  C   UNK N   1      32.449  17.602   7.132  0.00  0.00     0.055 A 
HETATM   21  C   UNK N   1      33.599  17.188   7.801  0.00  0.00     0.058 A 
HETATM   22  C   UNK N   1      33.803  15.822   8.062  0.00  0.00     0.055 A 
HETATM   23 Cl   UNK N   1      34.741  18.407   8.336  0.00  0.00    -0.082 Cl
HETATM   24  C   UNK N   1      32.851  14.885   7.645  0.00  0.00     0.028 A 
HETATM   25 Cl   UNK N   1      35.228  15.267   8.924  0.00  0.00    -0.083 Cl
HETATM   26  C   UNK N   1      31.688  15.309   6.995  0.00  0.00     0.031 A 
ENDBRANCH   1  19
TORSDOF 3
ENDMDL
MODEL 4
REMARK VINA RESULT:      -7.5      0.898      2.044
REMARK  3 active torsions:
REMARK  status: ('A' for Active; 'I' for Inactive)
REMARK    1  A    between atoms: C_6  and  N_7 
REMARK       I    between atoms: N_7  and  C_8 
REMARK       I    between atoms: C_8  and  N_10 
REMARK    2  A    between atoms: N_10  and  S_11 
REMARK    3  A    between atoms: S_11  and  C_14 
ROOT
HETATM    1  N   UNK N   1      35.189  15.522   9.516  0.00  0.00    -0.308 N 
HETATM    2  C   UNK N   1      35.157  16.855   9.762  0.00  0.00     0.334 C 
HETATM    3  O   UNK N   1      35.754  17.315  10.726  0.00  0.00    -0.246 OA
HETATM    4  N   UNK N   1      34.514  17.706   8.929  0.00  0.00    -0.232 N 
HETATM    5  H   UNK N   1      34.755  15.175   8.702  0.00  0.00     0.170 HD
HETATM    6  H   UNK N   1      34.516  18.661   9.169  0.00  0.00     0.183 HD
ENDROOT
BRANCH   4   7
HETATM    7  S   UNK N   1      33.673  17.244   7.453  0.00  0.00     0.266 S 
HETATM    8  O   UNK N   1      34.304  18.014   6.282  0.00  0.00    -0.200 OA
HETATM    9  O   UNK N   1      34.149  15.807   7.200  0.00  0.00    -0.200 OA
BRANCH   7  10
HETATM   10  C   UNK N   1      31.894  17.355   7.561  0.00  0.00     0.080 A 
HETATM   11  C   UNK N   1      31.300  18.022   8.653  0.00  0.00     0.028 A 
HETATM   12  C   UNK N   1      29.903  18.036   8.795  0.00  0.00     0.039 A 
HETATM   13  C   UNK N   1      29.139  17.369   7.838  0.00  0.00     0.075 A 
HETATM   14  C   UNK N   1      29.706  16.731   6.789  0.00  0.00    -0.021 A 
HETATM   15  O   UNK N   1      27.815  17.264   7.829  0.00  0.00    -0.350 OA
HETATM   16  C   UNK N   1      31.088  16.697   6.615  0.00  0.00     0.035 A 
HETATM   17  C   UNK N   1      28.659  16.111   5.951  0.00  0.00     0.068 A 
HETATM   18  C   UNK N   1      27.380  16.519   6.740  0.00  0.00     0.180 A 
ENDBRANCH   7  10
ENDBRANCH   4   7
BRANCH   1  19
HETATM   19  C   UNK N   1      35.829  14.614  10.393  0.00  0.00     0.038 A 
HETATM   20  C   UNK N   1      35.092  14.052  11.432  0.00  0.00     0.055 A 
HETATM   21  C   UNK N   1      35.652  13.068  12.245  0.00  0.00     0.058 A 
HETATM   22  C   UNK N   1      36.977  12.652  12.029  0.00  0.00     0.055 A 
HETATM   23 Cl   UNK N   1      34.654  12.349  13.495  0.00  0.00    -0.082 Cl
HETATM   24  C   UNK N   1      37.728  13.230  11.000  0.00  0.00     0.028 A 
HETATM   25 Cl   UNK N   1      37.706  11.398  13.019  0.00  0.00    -0.083 Cl
HETATM   26  C   UNK N   1      37.153  14.200  10.172  0.00  0.00     0.031 A 
ENDBRANCH   1  19
TORSDOF 3
ENDMDL
MODEL 5
REMARK VINA RESULT:      -7.4     15.522     17.911
REMARK  3 active torsions:
REMARK  status: ('A' for Active; 'I' for Inactive)
REMARK    1  A    between atoms: C_6  and  N_7 
REMARK       I    between atoms: N_7  and  C_8 
REMARK       I    between atoms: C_8  and  N_10 
REMARK    2  A    between atoms: N_10  and  S_11 
REMARK    3  A    between atoms: S_11  and  C_14 
ROOT
HETATM    1  N   UNK N   1      28.640  23.968  -3.846  0.00  0.00    -0.308 N 
HETATM    2  C   UNK N   1      28.650  23.246  -2.698  0.00  0.00     0.334 C 
HETATM    3  O   UNK N   1      27.646  23.190  -2.001  0.00  0.00    -0.246 OA
HETATM    4  N   UNK N   1      29.741  22.538  -2.325  0.00  0.00    -0.232 N 
HETATM    5  H   UNK N   1      29.436  23.954  -4.427  0.00  0.00     0.170 HD
HETATM    6  H   UNK N   1      29.690  22.044  -1.475  0.00  0.00     0.183 HD
ENDROOT
BRANCH   4   7
HETATM    7  S   UNK N   1      31.243  22.428  -3.237  0.00  0.00     0.266 S 
HETATM    8  O   UNK N   1      31.741  23.856  -3.511  0.00  0.00    -0.200 OA
HETATM    9  O   UNK N   1      32.256  21.916  -2.203  0.00  0.00    -0.200 OA
BRANCH   7  10
HETATM   10  C   UNK N   1      31.151  21.368  -4.671  0.00  0.00     0.080 A 
HETATM   11  C   UNK N   1      32.292  20.648  -5.083  0.00  0.00     0.028 A 
HETATM   12  C   UNK N   1      32.255  19.883  -6.260  0.00  0.00     0.039 A 
HETATM   13  C   UNK N   1      31.073  19.870  -6.998  0.00  0.00     0.075 A 
HETATM   14  C   UNK N   1      29.977  20.557  -6.604  0.00  0.00    -0.021 A 
HETATM   15  O   UNK N   1      30.870  19.222  -8.140  0.00  0.00    -0.350 OA
HETATM   16  C   UNK N   1      29.976  21.326  -5.441  0.00  0.00     0.035 A 
HETATM   17  C   UNK N   1      28.884  20.366  -7.579  0.00  0.00     0.068 A 
HETATM   18  C   UNK N   1      29.583  19.436  -8.615  0.00  0.00     0.180 A 
ENDBRANCH   7  10
ENDBRANCH   4   7
BRANCH   1  19
HETATM   19  C   UNK N   1      27.520  24.741  -4.235  0.00  0.00     0.038 A 
HETATM   20  C   UNK N   1      27.373  26.022  -3.708  0.00  0.00     0.055 A 
HETATM   21  C   UNK N   1      26.349  26.857  -4.153  0.00  0.00     0.058 A 
HETATM   22  C   UNK N   1      25.444  26.398  -5.127  0.00  0.00     0.055 A 
HETATM   23 Cl   UNK N   1      26.253  28.483  -3.503  0.00  0.00    -0.082 Cl
HETATM   24  C   UNK N   1      25.576  25.104  -5.642  0.00  0.00     0.028 A 
HETATM   25 Cl   UNK N   1      24.158  27.431  -5.728  0.00  0.00    -0.083 Cl
HETATM   26  C   UNK N   1      26.619  24.279  -5.209  0.00  0.00     0.031 A 
ENDBRANCH   1  19
TORSDOF 3
ENDMDL
MODEL 6
REMARK VINA RESULT:      -7.3     14.978     17.439
REMARK  3 active torsions:
REMARK  status: ('A' for Active; 'I' for Inactive)
REMARK    1  A    between atoms: C_6  and  N_7 
REMARK       I    between atoms: N_7  and  C_8 
REMARK       I    between atoms: C_8  and  N_10 
REMARK    2  A    between atoms: N_10  and  S_11 
REMARK    3  A    between atoms: S_11  and  C_14 
ROOT
HETATM    1  N   UNK N   1      29.401  23.237  -3.941  0.00  0.00    -0.308 N 
HETATM    2  C   UNK N   1      29.596  24.578  -3.904  0.00  0.00     0.334 C 
HETATM    3  O   UNK N   1      30.731  25.034  -3.922  0.00  0.00    -0.246 OA
HETATM    4  N   UNK N   1      28.550  25.438  -3.897  0.00  0.00    -0.232 N 
HETATM    5  H   UNK N   1      28.480  22.888  -3.986  0.00  0.00     0.170 HD
HETATM    6  H   UNK N   1      28.757  26.400  -3.857  0.00  0.00     0.183 HD
ENDROOT
BRANCH   4   7
HETATM    7  S   UNK N   1      26.852  24.976  -3.952  0.00  0.00     0.266 S 
HETATM    8  O   UNK N   1      26.617  23.891  -2.889  0.00  0.00    -0.200 OA
HETATM    9  O   UNK N   1      26.128  26.190  -3.353  0.00  0.00    -0.200 OA
BRANCH   7  10
HETATM   10  C   UNK N   1      26.257  24.577  -5.588  0.00  0.00     0.080 A 
HETATM   11  C   UNK N   1      25.951  23.239  -5.913  0.00  0.00     0.028 A 
HETATM   12  C   UNK N   1      25.570  22.902  -7.222  0.00  0.00     0.039 A 
HETATM   13  C   UNK N   1      25.515  23.920  -8.173  0.00  0.00     0.075 A 
HETATM   14  C   UNK N   1      25.806  25.204  -7.863  0.00  0.00    -0.021 A 
HETATM   15  O   UNK N   1      25.197  23.777  -9.455  0.00  0.00    -0.350 OA
HETATM   16  C   UNK N   1      26.187  25.575  -6.574  0.00  0.00     0.035 A 
HETATM   17  C   UNK N   1      25.674  26.054  -9.063  0.00  0.00     0.068 A 
HETATM   18  C   UNK N   1      25.256  24.992 -10.123  0.00  0.00     0.180 A 
ENDBRANCH   7  10
ENDBRANCH   4   7
BRANCH   1  19
HETATM   19  C   UNK N   1      30.481  22.322  -3.915  0.00  0.00     0.038 A 
HETATM   20  C   UNK N   1      30.768  21.589  -5.064  0.00  0.00     0.055 A 
HETATM   21  C   UNK N   1      31.890  20.766  -5.116  0.00  0.00     0.058 A 
HETATM   22  C   UNK N   1      32.732  20.657  -3.995  0.00  0.00     0.055 A 
HETATM   23 Cl   UNK N   1      32.238  19.919  -6.612  0.00  0.00    -0.082 Cl
HETATM   24  C   UNK N   1      32.434  21.375  -2.831  0.00  0.00     0.028 A 
HETATM   25 Cl   UNK N   1      34.168  19.648  -4.034  0.00  0.00    -0.083 Cl
HETATM   26  C   UNK N   1      31.319  22.218  -2.793  0.00  0.00     0.031 A 
ENDBRANCH   1  19
TORSDOF 3
ENDMDL
MODEL 7
REMARK VINA RESULT:      -7.3      2.676      4.213
REMARK  3 active torsions:
REMARK  status: ('A' for Active; 'I' for Inactive)
REMARK    1  A    between atoms: C_6  and  N_7 
REMARK       I    between atoms: N_7  and  C_8 
REMARK       I    between atoms: C_8  and  N_10 
REMARK    2  A    between atoms: N_10  and  S_11 
REMARK    3  A    between atoms: S_11  and  C_14 
ROOT
HETATM    1  N   UNK N   1      34.718  15.316  10.143  0.00  0.00    -0.308 N 
HETATM    2  C   UNK N   1      34.952  16.644  10.006  0.00  0.00     0.334 C 
HETATM    3  O   UNK N   1      35.930  17.153  10.539  0.00  0.00    -0.246 OA
HETATM    4  N   UNK N   1      34.149  17.422   9.243  0.00  0.00    -0.232 N 
HETATM    5  H   UNK N   1      33.961  14.911   9.659  0.00  0.00     0.170 HD
HETATM    6  H   UNK N   1      34.365  18.382   9.193  0.00  0.00     0.183 HD
ENDROOT
BRANCH   4   7
HETATM    7  S   UNK N   1      32.750  16.859   8.335  0.00  0.00     0.266 S 
HETATM    8  O   UNK N   1      32.145  15.661   9.084  0.00  0.00    -0.200 OA
HETATM    9  O   UNK N   1      31.703  17.958   8.568  0.00  0.00    -0.200 OA
BRANCH   7  10
HETATM   10  C   UNK N   1      33.068  16.587   6.600  0.00  0.00     0.080 A 
HETATM   11  C   UNK N   1      32.621  17.531   5.651  0.00  0.00     0.028 A 
HETATM   12  C   UNK N   1      32.786  17.282   4.279  0.00  0.00     0.039 A 
HETATM   13  C   UNK N   1      33.388  16.084   3.896  0.00  0.00     0.075 A 
HETATM   14  C   UNK N   1      33.819  15.179   4.804  0.00  0.00    -0.021 A 
HETATM   15  O   UNK N   1      33.602  15.680   2.649  0.00  0.00    -0.350 OA
HETATM   16  C   UNK N   1      33.673  15.392   6.173  0.00  0.00     0.035 A 
HETATM   17  C   UNK N   1      34.401  14.010   4.113  0.00  0.00     0.068 A 
HETATM   18  C   UNK N   1      34.208  14.431   2.626  0.00  0.00     0.180 A 
ENDBRANCH   7  10
ENDBRANCH   4   7
BRANCH   1  19
HETATM   19  C   UNK N   1      35.527  14.493  10.963  0.00  0.00     0.038 A 
HETATM   20  C   UNK N   1      35.200  14.357  12.309  0.00  0.00     0.055 A 
HETATM   21  C   UNK N   1      35.901  13.468  13.122  0.00  0.00     0.058 A 
HETATM   22  C   UNK N   1      36.961  12.716  12.585  0.00  0.00     0.055 A 
HETATM   23 Cl   UNK N   1      35.401  13.290  14.793  0.00  0.00    -0.082 Cl
HETATM   24  C   UNK N   1      37.307  12.866  11.238  0.00  0.00     0.028 A 
HETATM   25 Cl   UNK N   1      37.850  11.569  13.573  0.00  0.00    -0.083 Cl
HETATM   26  C   UNK N   1      36.584  13.743  10.422  0.00  0.00     0.031 A 
ENDBRANCH   1  19
TORSDOF 3
ENDMDL
MODEL 8
REMARK VINA RESULT:      -7.3      4.424      8.257
REMARK  3 active torsions:
REMARK  status: ('A' for Active; 'I' for Inactive)
REMARK    1  A    between atoms: C_6  and  N_7 
REMARK       I    between atoms: N_7  and  C_8 
REMARK       I    between atoms: C_8  and  N_10 
REMARK    2  A    between atoms: N_10  and  S_11 
REMARK    3  A    between atoms: S_11  and  C_14 
ROOT
HETATM    1  N   UNK N   1      34.389  15.418   8.626  0.00  0.00    -0.308 N 
HETATM    2  C   UNK N   1      33.452  15.243   9.590  0.00  0.00     0.334 C 
HETATM    3  O   UNK N   1      32.265  15.370   9.321  0.00  0.00    -0.246 OA
HETATM    4  N   UNK N   1      33.798  14.878  10.846  0.00  0.00    -0.232 N 
HETATM    5  H   UNK N   1      35.336  15.253   8.843  0.00  0.00     0.170 HD
HETATM    6  H   UNK N   1      33.073  14.779  11.504  0.00  0.00     0.183 HD
ENDROOT
BRANCH   4   7
HETATM    7  S   UNK N   1      35.441  14.567  11.399  0.00  0.00     0.266 S 
HETATM    8  O   UNK N   1      36.178  13.791  10.297  0.00  0.00    -0.200 OA
HETATM    9  O   UNK N   1      36.110  15.948  11.337  0.00  0.00    -0.200 OA
BRANCH   7  10
HETATM   10  C   UNK N   1      35.537  13.846  13.030  0.00  0.00     0.080 A 
HETATM   11  C   UNK N   1      36.436  14.378  13.978  0.00  0.00     0.028 A 
HETATM   12  C   UNK N   1      36.584  13.761  15.231  0.00  0.00     0.039 A 
HETATM   13  C   UNK N   1      35.830  12.619  15.494  0.00  0.00     0.075 A 
HETATM   14  C   UNK N   1      34.966  12.108  14.588  0.00  0.00    -0.021 A 
HETATM   15  O   UNK N   1      35.861  11.901  16.612  0.00  0.00    -0.350 OA
HETATM   16  C   UNK N   1      34.792  12.694  13.335  0.00  0.00     0.035 A 
HETATM   17  C   UNK N   1      34.318  10.899  15.135  0.00  0.00     0.068 A 
HETATM   18  C   UNK N   1      34.995  10.819  16.535  0.00  0.00     0.180 A 
ENDBRANCH   7  10
ENDBRANCH   4   7
BRANCH   1  19
HETATM   19  C   UNK N   1      34.049  15.831   7.315  0.00  0.00     0.038 A 
HETATM   20  C   UNK N   1      33.731  14.862   6.367  0.00  0.00     0.055 A 
HETATM   21  C   UNK N   1      33.279  15.232   5.102  0.00  0.00     0.058 A 
HETATM   22  C   UNK N   1      33.161  16.593   4.770  0.00  0.00     0.055 A 
HETATM   23 Cl   UNK N   1      32.830  13.968   3.971  0.00  0.00    -0.082 Cl
HETATM   24  C   UNK N   1      33.500  17.570   5.714  0.00  0.00     0.028 A 
HETATM   25 Cl   UNK N   1      32.572  17.095   3.194  0.00  0.00    -0.083 Cl
HETATM   26  C   UNK N   1      33.931  17.192   6.990  0.00  0.00     0.031 A 
ENDBRANCH   1  19
TORSDOF 3
ENDMDL
MODEL 9
REMARK VINA RESULT:      -7.3      4.845      8.627
REMARK  3 active torsions:
REMARK  status: ('A' for Active; 'I' for Inactive)
REMARK    1  A    between atoms: C_6  and  N_7 
REMARK       I    between atoms: N_7  and  C_8 
REMARK       I    between atoms: C_8  and  N_10 
REMARK    2  A    between atoms: N_10  and  S_11 
REMARK    3  A    between atoms: S_11  and  C_14 
ROOT
HETATM    1  N   UNK N   1      35.350  14.476  10.184  0.00  0.00    -0.308 N 
HETATM    2  C   UNK N   1      36.141  15.108  11.086  0.00  0.00     0.334 C 
HETATM    3  O   UNK N   1      36.377  16.302  10.964  0.00  0.00    -0.246 OA
HETATM    4  N   UNK N   1      36.644  14.452  12.158  0.00  0.00    -0.232 N 
HETATM    5  H   UNK N   1      35.121  13.529  10.329  0.00  0.00     0.170 HD
HETATM    6  H   UNK N   1      37.221  14.962  12.770  0.00  0.00     0.183 HD
ENDROOT
BRANCH   4   7
HETATM    7  S   UNK N   1      36.348  12.760  12.546  0.00  0.00     0.266 S 
HETATM    8  O   UNK N   1      35.199  12.259  11.657  0.00  0.00    -0.200 OA
HETATM    9  O   UNK N   1      37.566  12.036  11.953  0.00  0.00    -0.200 OA
BRANCH   7  10
HETATM   10  C   UNK N   1      36.155  12.434  14.291  0.00  0.00     0.080 A 
HETATM   11  C   UNK N   1      36.197  11.106  14.763  0.00  0.00     0.028 A 
HETATM   12  C   UNK N   1      35.956  10.833  16.119  0.00  0.00     0.039 A 
HETATM   13  C   UNK N   1      35.668  11.904  16.964  0.00  0.00     0.075 A 
HETATM   14  C   UNK N   1      35.629  13.179  16.514  0.00  0.00    -0.021 A 
HETATM   15  O   UNK N   1      35.395  11.826  18.262  0.00  0.00    -0.350 OA
HETATM   16  C   UNK N   1      35.864  13.487  15.175  0.00  0.00     0.035 A 
HETATM   17  C   UNK N   1      35.292  14.095  17.623  0.00  0.00     0.068 A 
HETATM   18  C   UNK N   1      35.140  13.081  18.796  0.00  0.00     0.180 A 
ENDBRANCH   7  10
ENDBRANCH   4   7
BRANCH   1  19
HETATM   19  C   UNK N   1      34.842  15.137   9.039  0.00  0.00     0.038 A 
HETATM   20  C   UNK N   1      33.830  16.079   9.202  0.00  0.00     0.055 A 
HETATM   21  C   UNK N   1      33.384  16.833   8.118  0.00  0.00     0.058 A 
HETATM   22  C   UNK N   1      33.947  16.631   6.845  0.00  0.00     0.055 A 
HETATM   23 Cl   UNK N   1      32.154  18.052   8.396  0.00  0.00    -0.082 Cl
HETATM   24  C   UNK N   1      34.950  15.670   6.675  0.00  0.00     0.028 A 
HETATM   25 Cl   UNK N   1      33.428  17.580   5.463  0.00  0.00    -0.083 Cl
HETATM   26  C   UNK N   1      35.409  14.932   7.770  0.00  0.00     0.031 A 
ENDBRANCH   1  19
TORSDOF 3
ENDMDL
