MODEL 1
REMARK VINA RESULT:      -8.7      0.000      0.000
REMARK  5 active torsions:
REMARK  status: ('A' for Active; 'I' for Inactive)
REMARK    1  A    between atoms: C_4  and  C_17 
REMARK    2  A    between atoms: C_8  and  C_9 
REMARK    3  A    between atoms: C_17  and  C_18 
REMARK       I    between atoms: C_18  and  N_20 
REMARK    4  A    between atoms: N_20  and  C_21 
REMARK    5  A    between atoms: C_24  and  C_28 
ROOT
HETATM    1  C   UNK N   1      34.758  14.692  10.609  0.00  0.00     0.227 C 
HETATM    2  O   UNK N   1      33.803  14.955  11.329  0.00  0.00    -0.273 OA
HETATM    3  N   UNK N   1      34.846  15.215   9.361  0.00  0.00    -0.313 N 
HETATM    4  H   UNK N   1      35.716  15.203   8.901  0.00  0.00     0.170 HD
ENDROOT
BRANCH   1   5
HETATM    5  C   UNK N   1      35.789  13.707  11.071  0.00  0.00     0.143 C 
BRANCH   5   6
HETATM    6  C   UNK N   1      35.591  13.424  12.535  0.00  0.00    -0.034 A 
HETATM    7  C   UNK N   1      34.773  12.372  12.933  0.00  0.00     0.018 A 
HETATM    8  C   UNK N   1      34.657  12.035  14.283  0.00  0.00    -0.034 A 
HETATM    9  C   UNK N   1      33.768  10.889  14.626  0.00  0.00     0.050 C 
HETATM   10  C   UNK N   1      35.414  12.759  15.248  0.00  0.00     0.048 A 
HETATM   11  N   UNK N   1      36.197  13.792  14.819  0.00  0.00    -0.364 N 
HETATM   12  C   UNK N   1      36.291  14.141  13.511  0.00  0.00     0.096 A 
ATOM     13  HN  UNK N   1      36.732  14.321  15.508  1.00  0.00     0.165 HD
BRANCH  10  14
HETATM   14  C   UNK N   1      35.419  12.442  16.709  0.00  0.00    -0.006 A 
HETATM   15  C   UNK N   1      35.077  13.446  17.629  0.00  0.00     0.030 A 
HETATM   16  C   UNK N   1      35.100  13.176  18.999  0.00  0.00     0.089 A 
HETATM   17  N   UNK N   1      35.440  11.937  19.444  0.00  0.00    -0.369 N 
HETATM   18  C   UNK N   1      35.768  10.941  18.580  0.00  0.00     0.005 A 
ATOM     19  HN  UNK N   1      35.449  11.752  20.448  1.00  0.00     0.165 HD
HETATM   20  C   UNK N   1      35.769  11.179  17.205  0.00  0.00     0.038 A 
HETATM   21  C   UNK N   1      36.122   9.594  19.098  0.00  0.00     0.068 C 
ENDBRANCH  10  14
ENDBRANCH   5   6
ENDBRANCH   1   5
BRANCH   3  22
HETATM   22  C   UNK N   1      33.728  15.778   8.694  0.00  0.00     0.107 A 
HETATM   23  C   UNK N   1      33.050  15.049   7.713  0.00  0.00     0.049 A 
HETATM   24  C   UNK N   1      31.869  15.568   7.171  0.00  0.00     0.019 A 
HETATM   25  C   UNK N   1      31.357  16.787   7.643  0.00  0.00     0.007 A 
HETATM   26  C   UNK N   1      32.069  17.478   8.625  0.00  0.00     0.103 A 
HETATM   27  N   UNK N   1      33.225  16.971   9.119  0.00  0.00    -0.351 N 
ATOM     28  HN  UNK N   1      33.733  17.497   9.830  1.00  0.00     0.166 HD
BRANCH  25  29
HETATM   29  C   UNK N   1      30.064  17.321   7.170  0.00  0.00     0.059 A 
HETATM   30  C   UNK N   1      29.074  17.728   8.072  0.00  0.00     0.117 A 
HETATM   31  N   UNK N   1      27.907  18.244   7.601  0.00  0.00    -0.372 N 
HETATM   32  C   UNK N   1      27.691  18.385   6.266  0.00  0.00     0.104 A 
ATOM     33  HN  UNK N   1      27.183  18.531   8.259  1.00  0.00     0.164 HD
HETATM   34  C   UNK N   1      28.677  17.984   5.365  0.00  0.00     0.105 A 
HETATM   35  N   UNK N   1      29.838  17.459   5.833  0.00  0.00    -0.363 N 
ATOM     36  HN  UNK N   1      30.554  17.163   5.172  1.00  0.00     0.165 HD
ENDBRANCH  25  29
ENDBRANCH   3  22
TORSDOF 5
ENDMDL
MODEL 2
REMARK VINA RESULT:      -8.3      1.620     11.244
REMARK  5 active torsions:
REMARK  status: ('A' for Active; 'I' for Inactive)
REMARK    1  A    between atoms: C_4  and  C_17 
REMARK    2  A    between atoms: C_8  and  C_9 
REMARK    3  A    between atoms: C_17  and  C_18 
REMARK       I    between atoms: C_18  and  N_20 
REMARK    4  A    between atoms: N_20  and  C_21 
REMARK    5  A    between atoms: C_24  and  C_28 
ROOT
HETATM    1  C   UNK N   1      35.043  13.852  11.264  0.00  0.00     0.227 C 
HETATM    2  O   UNK N   1      34.391  14.754  11.773  0.00  0.00    -0.273 OA
HETATM    3  N   UNK N   1      35.281  12.702  11.944  0.00  0.00    -0.313 N 
HETATM    4  H   UNK N   1      35.578  11.908  11.444  0.00  0.00     0.170 HD
ENDROOT
BRANCH   1   5
HETATM    5  C   UNK N   1      35.670  14.056   9.917  0.00  0.00     0.143 C 
BRANCH   5   6
HETATM    6  C   UNK N   1      34.704  14.778   9.019  0.00  0.00    -0.034 A 
HETATM    7  C   UNK N   1      34.759  16.164   8.914  0.00  0.00     0.018 A 
HETATM    8  C   UNK N   1      33.936  16.840   8.012  0.00  0.00    -0.034 A 
HETATM    9  C   UNK N   1      34.061  18.324   7.954  0.00  0.00     0.050 C 
HETATM   10  C   UNK N   1      33.061  16.092   7.173  0.00  0.00     0.048 A 
HETATM   11  N   UNK N   1      33.029  14.734   7.313  0.00  0.00    -0.364 N 
HETATM   12  C   UNK N   1      33.807  14.075   8.208  0.00  0.00     0.096 A 
ATOM     13  HN  UNK N   1      32.395  14.195   6.722  1.00  0.00     0.165 HD
BRANCH  10  14
HETATM   14  C   UNK N   1      32.186  16.705   6.126  0.00  0.00    -0.006 A 
HETATM   15  C   UNK N   1      32.732  17.007   4.869  0.00  0.00     0.030 A 
HETATM   16  C   UNK N   1      31.938  17.602   3.887  0.00  0.00     0.089 A 
HETATM   17  N   UNK N   1      30.631  17.878   4.141  0.00  0.00    -0.369 N 
HETATM   18  C   UNK N   1      30.069  17.589   5.345  0.00  0.00     0.005 A 
ATOM     19  HN  UNK N   1      30.060  18.309   3.413  1.00  0.00     0.165 HD
HETATM   20  C   UNK N   1      30.837  17.007   6.355  0.00  0.00     0.038 A 
HETATM   21  C   UNK N   1      28.634  17.890   5.587  0.00  0.00     0.068 C 
ENDBRANCH  10  14
ENDBRANCH   5   6
ENDBRANCH   1   5
BRANCH   3  22
HETATM   22  C   UNK N   1      35.116  12.604  13.348  0.00  0.00     0.107 A 
HETATM   23  C   UNK N   1      34.418  11.529  13.904  0.00  0.00     0.049 A 
HETATM   24  C   UNK N   1      34.389  11.378  15.295  0.00  0.00     0.019 A 
HETATM   25  C   UNK N   1      35.091  12.279  16.113  0.00  0.00     0.007 A 
HETATM   26  C   UNK N   1      35.775  13.337  15.511  0.00  0.00     0.103 A 
HETATM   27  N   UNK N   1      35.769  13.479  14.163  0.00  0.00    -0.351 N 
ATOM     28  HN  UNK N   1      36.269  14.265  13.746  1.00  0.00     0.166 HD
BRANCH  25  29
HETATM   29  C   UNK N   1      35.169  12.099  17.576  0.00  0.00     0.059 A 
HETATM   30  C   UNK N   1      35.157  13.199  18.443  0.00  0.00     0.117 A 
HETATM   31  N   UNK N   1      35.198  12.994  19.787  0.00  0.00    -0.372 N 
HETATM   32  C   UNK N   1      35.238  11.737  20.304  0.00  0.00     0.104 A 
ATOM     33  HN  UNK N   1      35.199  13.796  20.417  1.00  0.00     0.164 HD
HETATM   34  C   UNK N   1      35.246  10.640  19.444  0.00  0.00     0.105 A 
HETATM   35  N   UNK N   1      35.215  10.843  18.102  0.00  0.00    -0.363 N 
ATOM     36  HN  UNK N   1      35.226  10.039  17.475  1.00  0.00     0.165 HD
ENDBRANCH  25  29
ENDBRANCH   3  22
TORSDOF 5
ENDMDL
MODEL 3
REMARK VINA RESULT:      -8.2      1.653     11.026
REMARK  5 active torsions:
REMARK  status: ('A' for Active; 'I' for Inactive)
REMARK    1  A    between atoms: C_4  and  C_17 
REMARK    2  A    between atoms: C_8  and  C_9 
REMARK    3  A    between atoms: C_17  and  C_18 
REMARK       I    between atoms: C_18  and  N_20 
REMARK    4  A    between atoms: N_20  and  C_21 
REMARK    5  A    between atoms: C_24  and  C_28 
ROOT
HETATM    1  C   UNK N   1      36.071  14.200  12.477  0.00  0.00     0.227 C 
HETATM    2  O   UNK N   1      34.851  14.162  12.573  0.00  0.00    -0.273 OA
HETATM    3  N   UNK N   1      36.850  13.410  13.256  0.00  0.00    -0.313 N 
HETATM    4  H   UNK N   1      37.790  13.267  12.999  0.00  0.00     0.170 HD
ENDROOT
BRANCH   1   5
HETATM    5  C   UNK N   1      36.714  15.199  11.563  0.00  0.00     0.143 C 
BRANCH   5   6
HETATM    6  C   UNK N   1      35.755  15.562  10.462  0.00  0.00    -0.034 A 
HETATM    7  C   UNK N   1      35.396  14.609   9.514  0.00  0.00     0.018 A 
HETATM    8  C   UNK N   1      34.433  14.900   8.546  0.00  0.00    -0.034 A 
HETATM    9  C   UNK N   1      34.098  13.823   7.572  0.00  0.00     0.050 C 
HETATM   10  C   UNK N   1      33.795  16.173   8.560  0.00  0.00     0.048 A 
HETATM   11  N   UNK N   1      34.182  17.084   9.500  0.00  0.00    -0.364 N 
HETATM   12  C   UNK N   1      35.138  16.817  10.426  0.00  0.00     0.096 A 
ATOM     13  HN  UNK N   1      33.736  18.002   9.507  1.00  0.00     0.165 HD
BRANCH  10  14
HETATM   14  C   UNK N   1      32.705  16.567   7.616  0.00  0.00    -0.006 A 
HETATM   15  C   UNK N   1      31.375  16.564   8.065  0.00  0.00     0.030 A 
HETATM   16  C   UNK N   1      30.341  16.906   7.192  0.00  0.00     0.089 A 
HETATM   17  N   UNK N   1      30.620  17.255   5.907  0.00  0.00    -0.369 N 
HETATM   18  C   UNK N   1      31.898  17.276   5.443  0.00  0.00     0.005 A 
ATOM     19  HN  UNK N   1      29.855  17.506   5.280  1.00  0.00     0.165 HD
HETATM   20  C   UNK N   1      32.955  16.928   6.285  0.00  0.00     0.038 A 
HETATM   21  C   UNK N   1      32.171  17.676   4.038  0.00  0.00     0.068 C 
ENDBRANCH  10  14
ENDBRANCH   5   6
ENDBRANCH   1   5
BRANCH   3  22
HETATM   22  C   UNK N   1      36.360  12.782  14.429  0.00  0.00     0.107 A 
HETATM   23  C   UNK N   1      36.829  11.520  14.803  0.00  0.00     0.049 A 
HETATM   24  C   UNK N   1      36.437  10.983  16.034  0.00  0.00     0.019 A 
HETATM   25  C   UNK N   1      35.617  11.729  16.896  0.00  0.00     0.007 A 
HETATM   26  C   UNK N   1      35.175  12.986  16.480  0.00  0.00     0.103 A 
HETATM   27  N   UNK N   1      35.545  13.477  15.272  0.00  0.00    -0.351 N 
ATOM     28  HN  UNK N   1      35.203  14.395  14.984  1.00  0.00     0.166 HD
BRANCH  25  29
HETATM   29  C   UNK N   1      35.262  11.243  18.244  0.00  0.00     0.059 A 
HETATM   30  C   UNK N   1      35.368  12.074  19.366  0.00  0.00     0.117 A 
HETATM   31  N   UNK N   1      35.003  11.602  20.588  0.00  0.00    -0.372 N 
HETATM   32  C   UNK N   1      34.522  10.339  20.737  0.00  0.00     0.104 A 
ATOM     33  HN  UNK N   1      35.090  12.205  21.406  1.00  0.00     0.164 HD
HETATM   34  C   UNK N   1      34.411   9.510  19.622  0.00  0.00     0.105 A 
HETATM   35  N   UNK N   1      34.785   9.976  18.403  0.00  0.00    -0.363 N 
ATOM     36  HN  UNK N   1      34.707   9.366  17.590  1.00  0.00     0.165 HD
ENDBRANCH  25  29
ENDBRANCH   3  22
TORSDOF 5
ENDMDL
MODEL 4
REMARK VINA RESULT:      -8.2      2.853     11.184
REMARK  5 active torsions:
REMARK  status: ('A' for Active; 'I' for Inactive)
REMARK    1  A    between atoms: C_4  and  C_17 
REMARK    2  A    between atoms: C_8  and  C_9 
REMARK    3  A    between atoms: C_17  and  C_18 
REMARK       I    between atoms: C_18  and  N_20 
REMARK    4  A    between atoms: N_20  and  C_21 
REMARK    5  A    between atoms: C_24  and  C_28 
ROOT
HETATM    1  C   UNK N   1      34.378  16.826   9.296  0.00  0.00     0.227 C 
HETATM    2  O   UNK N   1      35.022  17.216  10.261  0.00  0.00    -0.273 OA
HETATM    3  N   UNK N   1      34.025  15.521   9.184  0.00  0.00    -0.313 N 
HETATM    4  H   UNK N   1      33.310  15.274   8.553  0.00  0.00     0.170 HD
ENDROOT
BRANCH   1   5
HETATM    5  C   UNK N   1      34.060  17.775   8.180  0.00  0.00     0.143 C 
BRANCH   5   6
HETATM    6  C   UNK N   1      32.612  17.636   7.801  0.00  0.00    -0.034 A 
HETATM    7  C   UNK N   1      31.621  18.032   8.694  0.00  0.00     0.018 A 
HETATM    8  C   UNK N   1      30.276  18.002   8.321  0.00  0.00    -0.034 A 
HETATM    9  C   UNK N   1      29.277  18.450   9.332  0.00  0.00     0.050 C 
HETATM   10  C   UNK N   1      29.930  17.593   7.002  0.00  0.00     0.048 A 
HETATM   11  N   UNK N   1      30.930  17.202   6.158  0.00  0.00    -0.364 N 
HETATM   12  C   UNK N   1      32.236  17.203   6.526  0.00  0.00     0.096 A 
ATOM     13  HN  UNK N   1      30.685  16.897   5.216  1.00  0.00     0.165 HD
BRANCH  10  14
HETATM   14  C   UNK N   1      28.531  17.586   6.473  0.00  0.00    -0.006 A 
HETATM   15  C   UNK N   1      27.774  16.406   6.553  0.00  0.00     0.030 A 
HETATM   16  C   UNK N   1      26.475  16.373   6.043  0.00  0.00     0.089 A 
HETATM   17  N   UNK N   1      25.935  17.487   5.480  0.00  0.00    -0.369 N 
HETATM   18  C   UNK N   1      26.637  18.647   5.395  0.00  0.00     0.005 A 
ATOM     19  HN  UNK N   1      24.982  17.451   5.115  1.00  0.00     0.165 HD
HETATM   20  C   UNK N   1      27.943  18.713   5.882  0.00  0.00     0.038 A 
HETATM   21  C   UNK N   1      26.013  19.851   4.787  0.00  0.00     0.068 C 
ENDBRANCH  10  14
ENDBRANCH   5   6
ENDBRANCH   1   5
BRANCH   3  22
HETATM   22  C   UNK N   1      34.650  14.498   9.942  0.00  0.00     0.107 A 
HETATM   23  C   UNK N   1      35.734  13.791   9.416  0.00  0.00     0.049 A 
HETATM   24  C   UNK N   1      36.422  12.888  10.233  0.00  0.00     0.019 A 
HETATM   25  C   UNK N   1      36.045  12.730  11.576  0.00  0.00     0.007 A 
HETATM   26  C   UNK N   1      34.957  13.459  12.057  0.00  0.00     0.103 A 
HETATM   27  N   UNK N   1      34.287  14.311  11.242  0.00  0.00    -0.351 N 
ATOM     28  HN  UNK N   1      33.489  14.827  11.613  1.00  0.00     0.166 HD
BRANCH  25  29
HETATM   29  C   UNK N   1      36.805  11.863  12.499  0.00  0.00     0.059 A 
HETATM   30  C   UNK N   1      37.138  10.548  12.150  0.00  0.00     0.117 A 
HETATM   31  N   UNK N   1      37.866   9.788  13.011  0.00  0.00    -0.372 N 
HETATM   32  C   UNK N   1      38.289  10.289  14.202  0.00  0.00     0.104 A 
ATOM     33  HN  UNK N   1      38.099   8.828  12.760  1.00  0.00     0.164 HD
HETATM   34  C   UNK N   1      37.963  11.599  14.551  0.00  0.00     0.105 A 
HETATM   35  N   UNK N   1      37.228  12.356  13.697  0.00  0.00    -0.363 N 
ATOM     36  HN  UNK N   1      36.987  13.311  13.957  1.00  0.00     0.165 HD
ENDBRANCH  25  29
ENDBRANCH   3  22
TORSDOF 5
ENDMDL
MODEL 5
REMARK VINA RESULT:      -8.1     10.565     13.948
REMARK  5 active torsions:
REMARK  status: ('A' for Active; 'I' for Inactive)
REMARK    1  A    between atoms: C_4  and  C_17 
REMARK    2  A    between atoms: C_8  and  C_9 
REMARK    3  A    between atoms: C_17  and  C_18 
REMARK       I    between atoms: C_18  and  N_20 
REMARK    4  A    between atoms: N_20  and  C_21 
REMARK    5  A    between atoms: C_24  and  C_28 
ROOT
HETATM    1  C   UNK N   1      20.415  12.493   3.387  0.00  0.00     0.227 C 
HETATM    2  O   UNK N   1      21.442  12.850   2.824  0.00  0.00    -0.273 OA
HETATM    3  N   UNK N   1      19.332  13.309   3.431  0.00  0.00    -0.313 N 
HETATM    4  H   UNK N   1      18.455  12.923   3.656  0.00  0.00     0.170 HD
ENDROOT
BRANCH   1   5
HETATM    5  C   UNK N   1      20.383  11.185   4.119  0.00  0.00     0.143 C 
BRANCH   5   6
HETATM    6  C   UNK N   1      21.083  11.335   5.442  0.00  0.00    -0.034 A 
HETATM    7  C   UNK N   1      22.080  10.435   5.804  0.00  0.00     0.018 A 
HETATM    8  C   UNK N   1      22.805  10.616   6.983  0.00  0.00    -0.034 A 
HETATM    9  C   UNK N   1      23.863   9.614   7.296  0.00  0.00     0.050 C 
HETATM   10  C   UNK N   1      22.537  11.755   7.796  0.00  0.00     0.048 A 
HETATM   11  N   UNK N   1      21.544  12.609   7.412  0.00  0.00    -0.364 N 
HETATM   12  C   UNK N   1      20.817  12.422   6.281  0.00  0.00     0.096 A 
ATOM     13  HN  UNK N   1      21.341  13.420   7.997  1.00  0.00     0.165 HD
BRANCH  10  14
HETATM   14  C   UNK N   1      23.297  12.086   9.041  0.00  0.00    -0.006 A 
HETATM   15  C   UNK N   1      24.527  12.752   8.936  0.00  0.00     0.030 A 
HETATM   16  C   UNK N   1      25.263  13.048  10.085  0.00  0.00     0.089 A 
HETATM   17  N   UNK N   1      24.783  12.703  11.310  0.00  0.00    -0.369 N 
HETATM   18  C   UNK N   1      23.591  12.064  11.446  0.00  0.00     0.005 A 
ATOM     19  HN  UNK N   1      25.329  12.928  12.142  1.00  0.00     0.165 HD
HETATM   20  C   UNK N   1      22.835  11.741  10.319  0.00  0.00     0.038 A 
HETATM   21  C   UNK N   1      23.087  11.713  12.800  0.00  0.00     0.068 C 
ENDBRANCH  10  14
ENDBRANCH   5   6
ENDBRANCH   1   5
BRANCH   3  22
HETATM   22  C   UNK N   1      19.420  14.699   3.166  0.00  0.00     0.107 A 
HETATM   23  C   UNK N   1      19.456  15.618   4.218  0.00  0.00     0.049 A 
HETATM   24  C   UNK N   1      19.684  16.969   3.938  0.00  0.00     0.019 A 
HETATM   25  C   UNK N   1      19.914  17.382   2.615  0.00  0.00     0.007 A 
HETATM   26  C   UNK N   1      19.869  16.428   1.598  0.00  0.00     0.103 A 
HETATM   27  N   UNK N   1      19.621  15.127   1.888  0.00  0.00    -0.351 N 
ATOM     28  HN  UNK N   1      19.585  14.448   1.127  1.00  0.00     0.166 HD
BRANCH  25  29
HETATM   29  C   UNK N   1      20.256  18.780   2.287  0.00  0.00     0.059 A 
HETATM   30  C   UNK N   1      20.452  19.735   3.293  0.00  0.00     0.117 A 
HETATM   31  N   UNK N   1      20.798  21.005   2.955  0.00  0.00    -0.372 N 
HETATM   32  C   UNK N   1      20.971  21.363   1.654  0.00  0.00     0.104 A 
ATOM     33  HN  UNK N   1      20.930  21.702   3.688  1.00  0.00     0.164 HD
HETATM   34  C   UNK N   1      20.781  20.414   0.651  0.00  0.00     0.105 A 
HETATM   35  N   UNK N   1      20.426  19.147   0.986  0.00  0.00    -0.363 N 
ATOM     36  HN  UNK N   1      20.283  18.458   0.250  1.00  0.00     0.165 HD
ENDBRANCH  25  29
ENDBRANCH   3  22
TORSDOF 5
ENDMDL
MODEL 6
REMARK VINA RESULT:      -8.0      1.842      2.789
REMARK  5 active torsions:
REMARK  status: ('A' for Active; 'I' for Inactive)
REMARK    1  A    between atoms: C_4  and  C_17 
REMARK    2  A    between atoms: C_8  and  C_9 
REMARK    3  A    between atoms: C_17  and  C_18 
REMARK       I    between atoms: C_18  and  N_20 
REMARK    4  A    between atoms: N_20  and  C_21 
REMARK    5  A    between atoms: C_24  and  C_28 
ROOT
HETATM    1  C   UNK N   1      35.614  13.758  12.088  0.00  0.00     0.227 C 
HETATM    2  O   UNK N   1      34.958  12.934  11.464  0.00  0.00    -0.273 OA
HETATM    3  N   UNK N   1      35.340  15.082  11.984  0.00  0.00    -0.313 N 
HETATM    4  H   UNK N   1      35.696  15.696  12.666  0.00  0.00     0.170 HD
ENDROOT
BRANCH   1   5
HETATM    5  C   UNK N   1      36.794  13.309  12.898  0.00  0.00     0.143 C 
BRANCH   5   6
HETATM    6  C   UNK N   1      36.313  12.587  14.126  0.00  0.00    -0.034 A 
HETATM    7  C   UNK N   1      36.946  11.416  14.533  0.00  0.00     0.018 A 
HETATM    8  C   UNK N   1      36.577  10.787  15.723  0.00  0.00    -0.034 A 
HETATM    9  C   UNK N   1      37.308   9.543  16.094  0.00  0.00     0.050 C 
HETATM   10  C   UNK N   1      35.566  11.377  16.536  0.00  0.00     0.048 A 
HETATM   11  N   UNK N   1      34.962  12.519  16.097  0.00  0.00    -0.364 N 
HETATM   12  C   UNK N   1      35.298  13.119  14.927  0.00  0.00     0.096 A 
ATOM     13  HN  UNK N   1      34.230  12.938  16.671  1.00  0.00     0.165 HD
BRANCH  10  14
HETATM   14  C   UNK N   1      35.139  10.828  17.861  0.00  0.00    -0.006 A 
HETATM   15  C   UNK N   1      35.449  11.541  19.029  0.00  0.00     0.030 A 
HETATM   16  C   UNK N   1      35.080  11.033  20.277  0.00  0.00     0.089 A 
HETATM   17  N   UNK N   1      34.410   9.853  20.361  0.00  0.00    -0.369 N 
HETATM   18  C   UNK N   1      34.088   9.142  19.248  0.00  0.00     0.005 A 
ATOM     19  HN  UNK N   1      34.143   9.495  21.279  1.00  0.00     0.165 HD
HETATM   20  C   UNK N   1      34.452   9.613  17.986  0.00  0.00     0.038 A 
HETATM   21  C   UNK N   1      33.341   7.863  19.374  0.00  0.00     0.068 C 
ENDBRANCH  10  14
ENDBRANCH   5   6
ENDBRANCH   1   5
BRANCH   3  22
HETATM   22  C   UNK N   1      34.560  15.615  10.927  0.00  0.00     0.107 A 
HETATM   23  C   UNK N   1      35.066  16.639  10.122  0.00  0.00     0.049 A 
HETATM   24  C   UNK N   1      34.337  17.049   9.001  0.00  0.00     0.019 A 
HETATM   25  C   UNK N   1      33.133  16.406   8.672  0.00  0.00     0.007 A 
HETATM   26  C   UNK N   1      32.669  15.387   9.506  0.00  0.00     0.103 A 
HETATM   27  N   UNK N   1      33.377  15.021  10.602  0.00  0.00    -0.351 N 
ATOM     28  HN  UNK N   1      33.014  14.279  11.201  1.00  0.00     0.166 HD
BRANCH  25  29
HETATM   29  C   UNK N   1      32.384  16.740   7.445  0.00  0.00     0.059 A 
HETATM   30  C   UNK N   1      33.041  16.927   6.222  0.00  0.00     0.117 A 
HETATM   31  N   UNK N   1      32.316  17.202   5.105  0.00  0.00    -0.372 N 
HETATM   32  C   UNK N   1      30.959  17.286   5.153  0.00  0.00     0.104 A 
ATOM     33  HN  UNK N   1      32.796  17.347   4.218  1.00  0.00     0.164 HD
HETATM   34  C   UNK N   1      30.301  17.096   6.367  0.00  0.00     0.105 A 
HETATM   35  N   UNK N   1      31.024  16.831   7.485  0.00  0.00    -0.363 N 
ATOM     36  HN  UNK N   1      30.542  16.698   8.372  1.00  0.00     0.165 HD
ENDBRANCH  25  29
ENDBRANCH   3  22
TORSDOF 5
ENDMDL
MODEL 7
REMARK VINA RESULT:      -8.0      2.882      4.368
REMARK  5 active torsions:
REMARK  status: ('A' for Active; 'I' for Inactive)
REMARK    1  A    between atoms: C_4  and  C_17 
REMARK    2  A    between atoms: C_8  and  C_9 
REMARK    3  A    between atoms: C_17  and  C_18 
REMARK       I    between atoms: C_18  and  N_20 
REMARK    4  A    between atoms: N_20  and  C_21 
REMARK    5  A    between atoms: C_24  and  C_28 
ROOT
HETATM    1  C   UNK N   1      36.679  12.373  12.869  0.00  0.00     0.227 C 
HETATM    2  O   UNK N   1      35.664  11.787  12.516  0.00  0.00    -0.273 OA
HETATM    3  N   UNK N   1      36.911  13.651  12.476  0.00  0.00    -0.313 N 
HETATM    4  H   UNK N   1      37.583  14.182  12.960  0.00  0.00     0.170 HD
ENDROOT
BRANCH   1   5
HETATM    5  C   UNK N   1      37.724  11.643  13.658  0.00  0.00     0.143 C 
BRANCH   5   6
HETATM    6  C   UNK N   1      37.173  11.288  15.011  0.00  0.00    -0.034 A 
HETATM    7  C   UNK N   1      36.424  12.223  15.720  0.00  0.00     0.018 A 
HETATM    8  C   UNK N   1      35.823  11.878  16.932  0.00  0.00    -0.034 A 
HETATM    9  C   UNK N   1      35.031  12.932  17.626  0.00  0.00     0.050 C 
HETATM   10  C   UNK N   1      35.956  10.546  17.420  0.00  0.00     0.048 A 
HETATM   11  N   UNK N   1      36.708   9.662  16.701  0.00  0.00    -0.364 N 
HETATM   12  C   UNK N   1      37.317  10.000  15.536  0.00  0.00     0.096 A 
ATOM     13  HN  UNK N   1      36.815   8.710  17.052  1.00  0.00     0.165 HD
BRANCH  10  14
HETATM   14  C   UNK N   1      35.301  10.048  18.669  0.00  0.00    -0.006 A 
HETATM   15  C   UNK N   1      35.922  10.279  19.906  0.00  0.00     0.030 A 
HETATM   16  C   UNK N   1      35.338   9.801  21.081  0.00  0.00     0.089 A 
HETATM   17  N   UNK N   1      34.161   9.122  21.031  0.00  0.00    -0.369 N 
HETATM   18  C   UNK N   1      33.530   8.889  19.849  0.00  0.00     0.005 A 
ATOM     19  HN  UNK N   1      33.743   8.782  21.897  1.00  0.00     0.165 HD
HETATM   20  C   UNK N   1      34.091   9.341  18.654  0.00  0.00     0.038 A 
HETATM   21  C   UNK N   1      32.237   8.157  19.830  0.00  0.00     0.068 C 
ENDBRANCH  10  14
ENDBRANCH   5   6
ENDBRANCH   1   5
BRANCH   3  22
HETATM   22  C   UNK N   1      36.218  14.249  11.393  0.00  0.00     0.107 A 
HETATM   23  C   UNK N   1      35.889  15.606  11.428  0.00  0.00     0.049 A 
HETATM   24  C   UNK N   1      35.333  16.205  10.292  0.00  0.00     0.019 A 
HETATM   25  C   UNK N   1      35.150  15.451   9.121  0.00  0.00     0.007 A 
HETATM   26  C   UNK N   1      35.496  14.099   9.134  0.00  0.00     0.103 A 
HETATM   27  N   UNK N   1      36.009  13.532  10.253  0.00  0.00    -0.351 N 
ATOM     28  HN  UNK N   1      36.246  12.540  10.242  1.00  0.00     0.166 HD
BRANCH  25  29
HETATM   29  C   UNK N   1      34.661  16.066   7.872  0.00  0.00     0.059 A 
HETATM   30  C   UNK N   1      34.885  15.461   6.629  0.00  0.00     0.117 A 
HETATM   31  N   UNK N   1      34.392  16.039   5.501  0.00  0.00    -0.372 N 
HETATM   32  C   UNK N   1      33.671  17.191   5.562  0.00  0.00     0.104 A 
ATOM     33  HN  UNK N   1      34.564  15.602   4.596  1.00  0.00     0.164 HD
HETATM   34  C   UNK N   1      33.441  17.793   6.798  0.00  0.00     0.105 A 
HETATM   35  N   UNK N   1      33.942  17.223   7.923  0.00  0.00    -0.363 N 
ATOM     36  HN  UNK N   1      33.777  17.668   8.825  1.00  0.00     0.165 HD
ENDBRANCH  25  29
ENDBRANCH   3  22
TORSDOF 5
ENDMDL
MODEL 8
REMARK VINA RESULT:      -7.9      3.232     11.147
REMARK  5 active torsions:
REMARK  status: ('A' for Active; 'I' for Inactive)
REMARK    1  A    between atoms: C_4  and  C_17 
REMARK    2  A    between atoms: C_8  and  C_9 
REMARK    3  A    between atoms: C_17  and  C_18 
REMARK       I    between atoms: C_18  and  N_20 
REMARK    4  A    between atoms: N_20  and  C_21 
REMARK    5  A    between atoms: C_24  and  C_28 
ROOT
HETATM    1  C   UNK N   1      33.791  17.323   6.112  0.00  0.00     0.227 C 
HETATM    2  O   UNK N   1      34.858  16.726   6.060  0.00  0.00    -0.273 OA
HETATM    3  N   UNK N   1      33.197  17.574   7.306  0.00  0.00    -0.313 N 
HETATM    4  H   UNK N   1      32.490  18.257   7.350  0.00  0.00     0.170 HD
ENDROOT
BRANCH   1   5
HETATM    5  C   UNK N   1      33.082  17.692   4.844  0.00  0.00     0.143 C 
BRANCH   5   6
HETATM    6  C   UNK N   1      31.796  16.918   4.745  0.00  0.00    -0.034 A 
HETATM    7  C   UNK N   1      30.584  17.596   4.660  0.00  0.00     0.018 A 
HETATM    8  C   UNK N   1      29.392  16.896   4.469  0.00  0.00    -0.034 A 
HETATM    9  C   UNK N   1      28.137  17.696   4.379  0.00  0.00     0.050 C 
HETATM   10  C   UNK N   1      29.432  15.479   4.328  0.00  0.00     0.048 A 
HETATM   11  N   UNK N   1      30.639  14.850   4.428  0.00  0.00    -0.364 N 
HETATM   12  C   UNK N   1      31.798  15.523   4.641  0.00  0.00     0.096 A 
ATOM     13  HN  UNK N   1      30.671  13.834   4.339  1.00  0.00     0.165 HD
BRANCH  10  14
HETATM   14  C   UNK N   1      28.227  14.636   4.053  0.00  0.00    -0.006 A 
HETATM   15  C   UNK N   1      27.820  14.436   2.725  0.00  0.00     0.030 A 
HETATM   16  C   UNK N   1      26.684  13.673   2.450  0.00  0.00     0.089 A 
HETATM   17  N   UNK N   1      25.978  13.110   3.467  0.00  0.00    -0.369 N 
HETATM   18  C   UNK N   1      26.351  13.277   4.763  0.00  0.00     0.005 A 
ATOM     19  HN  UNK N   1      25.151  12.551   3.252  1.00  0.00     0.165 HD
HETATM   20  C   UNK N   1      27.473  14.045   5.076  0.00  0.00     0.038 A 
HETATM   21  C   UNK N   1      25.566  12.636   5.850  0.00  0.00     0.068 C 
ENDBRANCH  10  14
ENDBRANCH   5   6
ENDBRANCH   1   5
BRANCH   3  22
HETATM   22  C   UNK N   1      33.559  16.887   8.492  0.00  0.00     0.107 A 
HETATM   23  C   UNK N   1      32.953  15.671   8.817  0.00  0.00     0.049 A 
HETATM   24  C   UNK N   1      33.425  14.944   9.915  0.00  0.00     0.019 A 
HETATM   25  C   UNK N   1      34.523  15.418  10.651  0.00  0.00     0.007 A 
HETATM   26  C   UNK N   1      35.097  16.638  10.287  0.00  0.00     0.103 A 
HETATM   27  N   UNK N   1      34.608  17.339   9.235  0.00  0.00    -0.351 N 
ATOM     28  HN  UNK N   1      35.038  18.232   8.993  1.00  0.00     0.166 HD
BRANCH  25  29
HETATM   29  C   UNK N   1      35.115  14.635  11.753  0.00  0.00     0.059 A 
HETATM   30  C   UNK N   1      36.160  15.151  12.530  0.00  0.00     0.117 A 
HETATM   31  N   UNK N   1      36.659  14.414  13.558  0.00  0.00    -0.372 N 
HETATM   32  C   UNK N   1      36.151  13.187  13.854  0.00  0.00     0.104 A 
ATOM     33  HN  UNK N   1      37.426  14.787  14.117  1.00  0.00     0.164 HD
HETATM   34  C   UNK N   1      35.108  12.673  13.085  0.00  0.00     0.105 A 
HETATM   35  N   UNK N   1      34.615  13.403  12.052  0.00  0.00    -0.363 N 
ATOM     36  HN  UNK N   1      33.856  13.022  11.489  1.00  0.00     0.165 HD
ENDBRANCH  25  29
ENDBRANCH   3  22
TORSDOF 5
ENDMDL
MODEL 9
REMARK VINA RESULT:      -7.9      2.290      4.343
REMARK  5 active torsions:
REMARK  status: ('A' for Active; 'I' for Inactive)
REMARK    1  A    between atoms: C_4  and  C_17 
REMARK    2  A    between atoms: C_8  and  C_9 
REMARK    3  A    between atoms: C_17  and  C_18 
REMARK       I    between atoms: C_18  and  N_20 
REMARK    4  A    between atoms: N_20  and  C_21 
REMARK    5  A    between atoms: C_24  and  C_28 
ROOT
HETATM    1  C   UNK N   1      32.885  15.672   7.346  0.00  0.00     0.227 C 
HETATM    2  O   UNK N   1      32.240  14.707   6.954  0.00  0.00    -0.273 OA
HETATM    3  N   UNK N   1      32.284  16.873   7.535  0.00  0.00    -0.313 N 
HETATM    4  H   UNK N   1      32.743  17.554   8.078  0.00  0.00     0.170 HD
ENDROOT
BRANCH   1   5
HETATM    5  C   UNK N   1      34.368  15.552   7.524  0.00  0.00     0.143 C 
BRANCH   5   6
HETATM    6  C   UNK N   1      34.667  15.007   8.893  0.00  0.00    -0.034 A 
HETATM    7  C   UNK N   1      35.871  14.352   9.131  0.00  0.00     0.018 A 
HETATM    8  C   UNK N   1      36.206  13.927  10.418  0.00  0.00    -0.034 A 
HETATM    9  C   UNK N   1      37.518  13.242  10.592  0.00  0.00     0.050 C 
HETATM   10  C   UNK N   1      35.314  14.202  11.494  0.00  0.00     0.048 A 
HETATM   11  N   UNK N   1      34.137  14.836  11.219  0.00  0.00    -0.364 N 
HETATM   12  C   UNK N   1      33.795  15.226   9.965  0.00  0.00     0.096 A 
ATOM     13  HN  UNK N   1      33.490  15.024  11.985  1.00  0.00     0.165 HD
BRANCH  10  14
HETATM   14  C   UNK N   1      35.600  13.853  12.921  0.00  0.00    -0.006 A 
HETATM   15  C   UNK N   1      35.074  12.666  13.454  0.00  0.00     0.030 A 
HETATM   16  C   UNK N   1      35.310  12.336  14.790  0.00  0.00     0.089 A 
HETATM   17  N   UNK N   1      36.059  13.156  15.574  0.00  0.00    -0.369 N 
HETATM   18  C   UNK N   1      36.589  14.309  15.085  0.00  0.00     0.005 A 
ATOM     19  HN  UNK N   1      36.227  12.901  16.548  1.00  0.00     0.165 HD
HETATM   20  C   UNK N   1      36.363  14.677  13.759  0.00  0.00     0.038 A 
HETATM   21  C   UNK N   1      37.416  15.177  15.964  0.00  0.00     0.068 C 
ENDBRANCH  10  14
ENDBRANCH   5   6
ENDBRANCH   1   5
BRANCH   3  22
HETATM   22  C   UNK N   1      31.018  17.184   6.978  0.00  0.00     0.107 A 
HETATM   23  C   UNK N   1      30.000  17.701   7.783  0.00  0.00     0.049 A 
HETATM   24  C   UNK N   1      28.809  18.131   7.187  0.00  0.00     0.019 A 
HETATM   25  C   UNK N   1      28.664  18.079   5.791  0.00  0.00     0.007 A 
HETATM   26  C   UNK N   1      29.710  17.556   5.028  0.00  0.00     0.103 A 
HETATM   27  N   UNK N   1      30.846  17.121   5.627  0.00  0.00    -0.351 N 
ATOM     28  HN  UNK N   1      31.593  16.735   5.050  1.00  0.00     0.166 HD
BRANCH  25  29
HETATM   29  C   UNK N   1      27.467  18.614   5.114  0.00  0.00     0.059 A 
HETATM   30  C   UNK N   1      27.572  19.594   4.120  0.00  0.00     0.117 A 
HETATM   31  N   UNK N   1      26.450  20.040   3.495  0.00  0.00    -0.372 N 
HETATM   32  C   UNK N   1      25.225  19.540   3.812  0.00  0.00     0.104 A 
ATOM     33  HN  UNK N   1      26.527  20.761   2.778  1.00  0.00     0.164 HD
HETATM   34  C   UNK N   1      25.117  18.562   4.799  0.00  0.00     0.105 A 
HETATM   35  N   UNK N   1      26.235  18.122   5.430  0.00  0.00    -0.363 N 
ATOM     36  HN  UNK N   1      26.152  17.410   6.154  1.00  0.00     0.165 HD
ENDBRANCH  25  29
ENDBRANCH   3  22
TORSDOF 5
ENDMDL
