MODEL 1
REMARK VINA RESULT:      -7.8      0.000      0.000
REMARK  22 active torsions:
REMARK  status: ('A' for Active; 'I' for Inactive)
REMARK    1  A    between atoms: C_2  and  C_5 
REMARK    2  A    between atoms: C_8  and  C_22 
REMARK    3  A    between atoms: C_9  and  C_18 
REMARK    4  A    between atoms: C_12  and  C_14 
REMARK    5  A    between atoms: C_22  and  C_23 
REMARK    6  A    between atoms: C_23  and  C_24 
REMARK    7  A    between atoms: C_23  and  N_47 
REMARK       I    between atoms: C_24  and  N_26 
REMARK    8  A    between atoms: C_27  and  N_26 
REMARK    9  A    between atoms: C_27  and  C_28 
REMARK   10  A    between atoms: C_27  and  C_36 
REMARK   11  A    between atoms: C_28  and  C_29 
REMARK   12  A    between atoms: C_29  and  C_30 
REMARK   13  A    between atoms: C_30  and  N_31 
REMARK       I    between atoms: N_31  and  C_32 
REMARK       I    between atoms: C_32  and  N_35 
REMARK       I    between atoms: C_36  and  N_38 
REMARK   14  A    between atoms: N_38  and  C_39 
REMARK   15  A    between atoms: C_39  and  C_40 
REMARK   16  A    between atoms: C_40  and  C_41 
REMARK       I    between atoms: N_47  and  C_48 
REMARK   17  A    between atoms: C_48  and  C_50 
REMARK   18  A    between atoms: C_50  and  C_51 
REMARK   19  A    between atoms: C_50  and  N_59 
REMARK   20  A    between atoms: C_51  and  C_52 
REMARK   21  A    between atoms: C_52  and  C_53 
REMARK   22  A    between atoms: C_53  and  N_54 
REMARK       I    between atoms: N_54  and  C_55 
REMARK       I    between atoms: C_55  and  N_58 
ROOT
HETATM    1  C   UNK N   1      26.062  14.324   4.174  0.00  0.00     0.181 C 
ENDROOT
BRANCH   1   2
HETATM    2  C   UNK N   1      27.339  13.758   4.806  0.00  0.00     0.076 C 
BRANCH   2   3
HETATM    3  C   UNK N   1      28.682  14.454   4.715  0.00  0.00    -0.020 A 
HETATM    4  C   UNK N   1      29.225  15.439   5.535  0.00  0.00     0.000 A 
HETATM    5  C   UNK N   1      28.701  16.170   6.603  0.00  0.00     0.022 A 
HETATM    6  C   UNK N   1      30.516  15.642   5.107  0.00  0.00     0.050 A 
HETATM    7  C   UNK N   1      29.515  17.162   7.215  0.00  0.00    -0.049 A 
HETATM    8  C   UNK N   1      30.853  17.309   6.792  0.00  0.00     0.018 A 
HETATM    9  C   UNK N   1      31.385  16.541   5.746  0.00  0.00    -0.022 A 
HETATM   10  N   UNK N   1      30.806  14.874   4.049  0.00  0.00    -0.357 N 
HETATM   11  C   UNK N   1      29.691  14.152   3.779  0.00  0.00     0.024 A 
HETATM   12  H   UNK N   1      31.661  14.840   3.563  0.00  0.00     0.166 HD
BRANCH   7  13
HETATM   13  C   UNK N   1      28.949  18.111   8.259  0.00  0.00    -0.024 C 
HETATM   14  C   UNK N   1      28.118  19.234   7.651  0.00  0.00     0.019 C 
HETATM   15  C   UNK N   1      30.060  18.757   9.053  0.00  0.00     0.019 C 
HETATM   16  C   UNK N   1      28.028  17.348   9.194  0.00  0.00     0.019 C 
ENDBRANCH   7  13
BRANCH   9  17
HETATM   17  C   UNK N   1      32.842  16.680   5.335  0.00  0.00    -0.022 C 
HETATM   18  C   UNK N   1      32.926  17.357   3.977  0.00  0.00     0.019 C 
HETATM   19  C   UNK N   1      33.545  15.334   5.213  0.00  0.00     0.019 C 
HETATM   20  C   UNK N   1      33.600  17.512   6.351  0.00  0.00     0.019 C 
ENDBRANCH   9  17
BRANCH  11  21
HETATM   21  C   UNK N   1      29.657  13.197   2.603  0.00  0.00    -0.008 C 
HETATM   22  C   UNK N   1      28.919  13.869   1.460  0.00  0.00     0.021 C 
HETATM   23  C   UNK N   1      31.072  12.894   2.149  0.00  0.00     0.021 C 
HETATM   24  C   UNK N   1      28.962  11.881   2.884  0.00  0.00     0.021 C 
ENDBRANCH  11  21
ENDBRANCH   2   3
ENDBRANCH   1   2
BRANCH   1  25
HETATM   25  C   UNK N   1      25.280  13.550   3.131  0.00  0.00     0.241 C 
HETATM   26  O   UNK N   1      25.787  13.356   2.038  0.00  0.00    -0.271 OA
HETATM   27  N   UNK N   1      24.052  13.015   3.391  0.00  0.00    -0.346 N 
HETATM   28  H   UNK N   1      23.627  12.487   2.676  0.00  0.00     0.163 HD
BRANCH  27  29
HETATM   29  C   UNK N   1      23.324  13.164   4.637  0.00  0.00     0.176 C 
BRANCH  29  30
HETATM   30  C   UNK N   1      22.496  14.428   4.847  0.00  0.00     0.036 C 
BRANCH  30  31
HETATM   31  C   UNK N   1      21.309  14.184   5.774  0.00  0.00     0.023 C 
BRANCH  31  32
HETATM   32  C   UNK N   1      20.249  15.287   5.729  0.00  0.00     0.138 C 
BRANCH  32  33
HETATM   33  N   UNK N   1      19.892  15.773   7.045  0.00  0.00    -0.227 N 
HETATM   34  C   UNK N   1      20.258  17.056   7.530  0.00  0.00     0.665 C 
HETATM   35  N   UNK N   1      21.042  17.815   6.856  0.00  0.00    -0.235 N 
HETATM   36  N   UNK N   1      19.741  17.508   8.761  0.00  0.00    -0.235 N 
HETATM   37  H   UNK N   1      21.269  18.767   6.751  0.00  0.00     0.174 HD
ATOM     38  HN  UNK N   1      21.614  17.250   6.228  1.00  0.00     0.174 HD
HETATM   39  H   UNK N   1      19.975  17.042   9.596  0.00  0.00     0.174 HD
HETATM   40  H   UNK N   1      19.144  18.291   8.787  0.00  0.00     0.174 HD
HETATM   41  H   UNK N   1      19.368  15.183   7.634  0.00  0.00     0.177 HD
ENDBRANCH  32  33
ENDBRANCH  31  32
ENDBRANCH  30  31
ENDBRANCH  29  30
BRANCH  29  42
HETATM   42  C   UNK N   1      23.193  11.930   5.495  0.00  0.00     0.240 C 
HETATM   43  O   UNK N   1      22.441  11.043   5.138  0.00  0.00    -0.271 OA
HETATM   44  N   UNK N   1      23.900  11.757   6.636  0.00  0.00    -0.359 N 
HETATM   45  H   UNK N   1      23.789  10.905   7.116  0.00  0.00     0.162 HD
BRANCH  44  46
HETATM   46  C   UNK N   1      24.804  12.730   7.197  0.00  0.00     0.127 C 
BRANCH  46  47
HETATM   47  C   UNK N   1      24.062  13.686   8.138  0.00  0.00     0.058 C 
BRANCH  47  48
HETATM   48  C   UNK N   1      23.667  13.051   9.439  0.00  0.00    -0.057 A 
HETATM   49  C   UNK N   1      22.314  12.963   9.796  0.00  0.00     0.007 A 
HETATM   50  C   UNK N   1      21.942  12.372  11.007  0.00  0.00     0.001 A 
HETATM   51  C   UNK N   1      22.921  11.869  11.868  0.00  0.00     0.000 A 
HETATM   52  C   UNK N   1      24.273  11.964  11.520  0.00  0.00     0.001 A 
HETATM   53  C   UNK N   1      24.646  12.556  10.309  0.00  0.00     0.007 A 
ENDBRANCH  47  48
ENDBRANCH  46  47
ENDBRANCH  44  46
ENDBRANCH  29  42
ENDBRANCH  27  29
ENDBRANCH   1  25
BRANCH   1  54
HETATM   54  N   UNK N   1      26.070  15.769   4.097  0.00  0.00    -0.346 N 
HETATM   55  C   UNK N   1      25.600  16.615   5.040  0.00  0.00     0.240 C 
HETATM   56  O   UNK N   1      25.159  16.192   6.097  0.00  0.00    -0.271 OA
HETATM   57  H   UNK N   1      26.453  16.171   3.284  0.00  0.00     0.163 HD
BRANCH  55  58
HETATM   58  C   UNK N   1      25.606  18.083   4.741  0.00  0.00     0.167 C 
BRANCH  58  59
HETATM   59  C   UNK N   1      24.243  18.774   4.834  0.00  0.00     0.036 C 
BRANCH  59  60
HETATM   60  C   UNK N   1      23.148  18.112   4.002  0.00  0.00     0.023 C 
BRANCH  60  61
HETATM   61  C   UNK N   1      22.160  19.159   3.509  0.00  0.00     0.138 C 
BRANCH  61  62
HETATM   62  N   UNK N   1      20.835  18.601   3.408  0.00  0.00    -0.227 N 
HETATM   63  C   UNK N   1      19.909  19.048   2.429  0.00  0.00     0.665 C 
HETATM   64  N   UNK N   1      18.752  18.506   2.354  0.00  0.00    -0.235 N 
HETATM   65  N   UNK N   1      20.264  20.071   1.518  0.00  0.00    -0.235 N 
HETATM   66  H   UNK N   1      17.945  18.842   1.901  0.00  0.00     0.174 HD
ATOM     67  HN  UNK N   1      18.652  17.608   2.828  1.00  0.00     0.174 HD
HETATM   68  H   UNK N   1      21.022  20.678   1.673  0.00  0.00     0.174 HD
HETATM   69  H   UNK N   1      19.731  20.180   0.697  0.00  0.00     0.174 HD
HETATM   70  H   UNK N   1      20.564  17.891   4.035  0.00  0.00     0.177 HD
ENDBRANCH  61  62
ENDBRANCH  60  61
ENDBRANCH  59  60
ENDBRANCH  58  59
BRANCH  58  71
HETATM   71  N   UNK N   1      26.287  18.368   3.493  0.00  0.00    -0.418 N 
HETATM   72  H   UNK N   1      26.717  17.722   2.830  0.00  0.00     0.150 HD
HETATM   73  H   UNK N   1      26.345  19.354   3.241  0.00  0.00     0.150 HD
ENDBRANCH  58  71
ENDBRANCH  55  58
ENDBRANCH   1  54
TORSDOF 22
ENDMDL
MODEL 2
REMARK VINA RESULT:      -7.8      2.989      7.514
REMARK  22 active torsions:
REMARK  status: ('A' for Active; 'I' for Inactive)
REMARK    1  A    between atoms: C_2  and  C_5 
REMARK    2  A    between atoms: C_8  and  C_22 
REMARK    3  A    between atoms: C_9  and  C_18 
REMARK    4  A    between atoms: C_12  and  C_14 
REMARK    5  A    between atoms: C_22  and  C_23 
REMARK    6  A    between atoms: C_23  and  C_24 
REMARK    7  A    between atoms: C_23  and  N_47 
REMARK       I    between atoms: C_24  and  N_26 
REMARK    8  A    between atoms: C_27  and  N_26 
REMARK    9  A    between atoms: C_27  and  C_28 
REMARK   10  A    between atoms: C_27  and  C_36 
REMARK   11  A    between atoms: C_28  and  C_29 
REMARK   12  A    between atoms: C_29  and  C_30 
REMARK   13  A    between atoms: C_30  and  N_31 
REMARK       I    between atoms: N_31  and  C_32 
REMARK       I    between atoms: C_32  and  N_35 
REMARK       I    between atoms: C_36  and  N_38 
REMARK   14  A    between atoms: N_38  and  C_39 
REMARK   15  A    between atoms: C_39  and  C_40 
REMARK   16  A    between atoms: C_40  and  C_41 
REMARK       I    between atoms: N_47  and  C_48 
REMARK   17  A    between atoms: C_48  and  C_50 
REMARK   18  A    between atoms: C_50  and  C_51 
REMARK   19  A    between atoms: C_50  and  N_59 
REMARK   20  A    between atoms: C_51  and  C_52 
REMARK   21  A    between atoms: C_52  and  C_53 
REMARK   22  A    between atoms: C_53  and  N_54 
REMARK       I    between atoms: N_54  and  C_55 
REMARK       I    between atoms: C_55  and  N_58 
ROOT
HETATM    1  C   UNK N   1      23.196  16.525   5.023  0.00  0.00     0.181 C 
ENDROOT
BRANCH   1   2
HETATM    2  C   UNK N   1      22.610  16.439   3.608  0.00  0.00     0.076 C 
BRANCH   2   3
HETATM    3  C   UNK N   1      22.758  15.214   2.728  0.00  0.00    -0.020 A 
HETATM    4  C   UNK N   1      23.876  14.416   2.505  0.00  0.00     0.000 A 
HETATM    5  C   UNK N   1      25.209  14.528   2.903  0.00  0.00     0.022 A 
HETATM    6  C   UNK N   1      23.457  13.359   1.730  0.00  0.00     0.050 A 
HETATM    7  C   UNK N   1      26.139  13.549   2.458  0.00  0.00    -0.049 A 
HETATM    8  C   UNK N   1      25.670  12.447   1.712  0.00  0.00     0.018 A 
HETATM    9  C   UNK N   1      24.321  12.320   1.351  0.00  0.00    -0.022 A 
HETATM   10  N   UNK N   1      22.158  13.463   1.424  0.00  0.00    -0.357 N 
HETATM   11  C   UNK N   1      21.713  14.602   2.009  0.00  0.00     0.024 A 
HETATM   12  H   UNK N   1      21.629  12.835   0.881  0.00  0.00     0.166 HD
BRANCH   7  13
HETATM   13  C   UNK N   1      27.630  13.709   2.707  0.00  0.00    -0.024 C 
HETATM   14  C   UNK N   1      28.439  12.500   2.254  0.00  0.00     0.019 C 
HETATM   15  C   UNK N   1      27.908  13.906   4.179  0.00  0.00     0.019 C 
HETATM   16  C   UNK N   1      28.153  14.898   1.923  0.00  0.00     0.019 C 
ENDBRANCH   7  13
BRANCH   9  17
HETATM   17  C   UNK N   1      23.827  11.102   0.587  0.00  0.00    -0.022 C 
HETATM   18  C   UNK N   1      23.543  11.485  -0.856  0.00  0.00     0.019 C 
HETATM   19  C   UNK N   1      22.537  10.534   1.166  0.00  0.00     0.019 C 
HETATM   20  C   UNK N   1      24.871  10.003   0.611  0.00  0.00     0.019 C 
ENDBRANCH   9  17
BRANCH  11  21
HETATM   21  C   UNK N   1      20.277  15.050   1.829  0.00  0.00    -0.008 C 
HETATM   22  C   UNK N   1      19.620  14.157   0.794  0.00  0.00     0.021 C 
HETATM   23  C   UNK N   1      19.527  14.900   3.139  0.00  0.00     0.021 C 
HETATM   24  C   UNK N   1      20.121  16.482   1.361  0.00  0.00     0.021 C 
ENDBRANCH  11  21
ENDBRANCH   2   3
ENDBRANCH   1   2
BRANCH   1  25
HETATM   25  C   UNK N   1      22.319  16.783   6.232  0.00  0.00     0.241 C 
HETATM   26  O   UNK N   1      21.932  17.920   6.449  0.00  0.00    -0.271 OA
HETATM   27  N   UNK N   1      21.901  15.778   7.056  0.00  0.00    -0.346 N 
HETATM   28  H   UNK N   1      21.297  16.019   7.795  0.00  0.00     0.163 HD
BRANCH  27  29
HETATM   29  C   UNK N   1      22.280  14.383   6.929  0.00  0.00     0.176 C 
BRANCH  29  30
HETATM   30  C   UNK N   1      23.758  14.020   7.030  0.00  0.00     0.036 C 
BRANCH  30  31
HETATM   31  C   UNK N   1      24.167  13.694   8.464  0.00  0.00     0.023 C 
BRANCH  31  32
HETATM   32  C   UNK N   1      23.957  12.229   8.852  0.00  0.00     0.138 C 
BRANCH  32  33
HETATM   33  N   UNK N   1      23.908  12.032  10.284  0.00  0.00    -0.227 N 
HETATM   34  C   UNK N   1      22.699  12.003  11.029  0.00  0.00     0.665 C 
HETATM   35  N   UNK N   1      21.577  12.276  10.471  0.00  0.00    -0.235 N 
HETATM   36  N   UNK N   1      22.731  11.654  12.394  0.00  0.00    -0.235 N 
HETATM   37  H   UNK N   1      20.614  12.107  10.584  0.00  0.00     0.174 HD
ATOM     38  HN  UNK N   1      21.733  12.854   9.645  1.00  0.00     0.174 HD
HETATM   39  H   UNK N   1      23.203  12.229  13.039  0.00  0.00     0.174 HD
HETATM   40  H   UNK N   1      22.281  10.835  12.704  0.00  0.00     0.174 HD
HETATM   41  H   UNK N   1      24.757  11.912  10.769  0.00  0.00     0.177 HD
ENDBRANCH  32  33
ENDBRANCH  31  32
ENDBRANCH  30  31
ENDBRANCH  29  30
BRANCH  29  42
HETATM   42  C   UNK N   1      21.165  13.370   7.013  0.00  0.00     0.240 C 
HETATM   43  O   UNK N   1      20.399  13.416   7.957  0.00  0.00    -0.271 OA
HETATM   44  N   UNK N   1      20.965  12.426   6.064  0.00  0.00    -0.359 N 
HETATM   45  H   UNK N   1      20.189  11.829   6.172  0.00  0.00     0.162 HD
BRANCH  44  46
HETATM   46  C   UNK N   1      21.805  12.232   4.909  0.00  0.00     0.127 C 
BRANCH  46  47
HETATM   47  C   UNK N   1      22.104  10.744   4.694  0.00  0.00     0.058 C 
BRANCH  47  48
HETATM   48  C   UNK N   1      23.571  10.436   4.636  0.00  0.00    -0.057 A 
HETATM   49  C   UNK N   1      24.506  11.391   5.061  0.00  0.00     0.007 A 
HETATM   50  C   UNK N   1      25.874  11.109   5.009  0.00  0.00     0.001 A 
HETATM   51  C   UNK N   1      26.314   9.872   4.530  0.00  0.00     0.000 A 
HETATM   52  C   UNK N   1      25.385   8.920   4.097  0.00  0.00     0.001 A 
HETATM   53  C   UNK N   1      24.015   9.202   4.147  0.00  0.00     0.007 A 
ENDBRANCH  47  48
ENDBRANCH  46  47
ENDBRANCH  44  46
ENDBRANCH  29  42
ENDBRANCH  27  29
ENDBRANCH   1  25
BRANCH   1  54
HETATM   54  N   UNK N   1      24.553  17.027   5.037  0.00  0.00    -0.346 N 
HETATM   55  C   UNK N   1      24.937  18.276   4.691  0.00  0.00     0.240 C 
HETATM   56  O   UNK N   1      24.114  19.121   4.377  0.00  0.00    -0.271 OA
HETATM   57  H   UNK N   1      25.259  16.403   5.322  0.00  0.00     0.163 HD
BRANCH  55  58
HETATM   58  C   UNK N   1      26.403  18.587   4.676  0.00  0.00     0.167 C 
BRANCH  58  59
HETATM   59  C   UNK N   1      27.328  17.378   4.835  0.00  0.00     0.036 C 
BRANCH  59  60
HETATM   60  C   UNK N   1      28.566  17.644   5.688  0.00  0.00     0.023 C 
BRANCH  60  61
HETATM   61  C   UNK N   1      28.502  16.829   6.972  0.00  0.00     0.138 C 
BRANCH  61  62
HETATM   62  N   UNK N   1      29.431  17.343   7.946  0.00  0.00    -0.227 N 
HETATM   63  C   UNK N   1      29.011  18.190   9.006  0.00  0.00     0.665 C 
HETATM   64  N   UNK N   1      29.864  18.600   9.867  0.00  0.00    -0.235 N 
HETATM   65  N   UNK N   1      27.653  18.562   9.132  0.00  0.00    -0.235 N 
HETATM   66  H   UNK N   1      29.782  19.346  10.505  0.00  0.00     0.174 HD
ATOM     67  HN  UNK N   1      30.745  18.087   9.897  1.00  0.00     0.174 HD
HETATM   68  H   UNK N   1      27.011  18.484   8.390  0.00  0.00     0.174 HD
HETATM   69  H   UNK N   1      27.336  18.914   9.996  0.00  0.00     0.174 HD
HETATM   70  H   UNK N   1      30.384  17.100   7.876  0.00  0.00     0.177 HD
ENDBRANCH  61  62
ENDBRANCH  60  61
ENDBRANCH  59  60
ENDBRANCH  58  59
BRANCH  58  71
HETATM   71  N   UNK N   1      26.728  19.659   5.598  0.00  0.00    -0.418 N 
HETATM   72  H   UNK N   1      26.392  19.816   6.548  0.00  0.00     0.150 HD
HETATM   73  H   UNK N   1      27.386  20.354   5.247  0.00  0.00     0.150 HD
ENDBRANCH  58  71
ENDBRANCH  55  58
ENDBRANCH   1  54
TORSDOF 22
ENDMDL
MODEL 3
REMARK VINA RESULT:      -7.8      2.526      8.086
REMARK  22 active torsions:
REMARK  status: ('A' for Active; 'I' for Inactive)
REMARK    1  A    between atoms: C_2  and  C_5 
REMARK    2  A    between atoms: C_8  and  C_22 
REMARK    3  A    between atoms: C_9  and  C_18 
REMARK    4  A    between atoms: C_12  and  C_14 
REMARK    5  A    between atoms: C_22  and  C_23 
REMARK    6  A    between atoms: C_23  and  C_24 
REMARK    7  A    between atoms: C_23  and  N_47 
REMARK       I    between atoms: C_24  and  N_26 
REMARK    8  A    between atoms: C_27  and  N_26 
REMARK    9  A    between atoms: C_27  and  C_28 
REMARK   10  A    between atoms: C_27  and  C_36 
REMARK   11  A    between atoms: C_28  and  C_29 
REMARK   12  A    between atoms: C_29  and  C_30 
REMARK   13  A    between atoms: C_30  and  N_31 
REMARK       I    between atoms: N_31  and  C_32 
REMARK       I    between atoms: C_32  and  N_35 
REMARK       I    between atoms: C_36  and  N_38 
REMARK   14  A    between atoms: N_38  and  C_39 
REMARK   15  A    between atoms: C_39  and  C_40 
REMARK   16  A    between atoms: C_40  and  C_41 
REMARK       I    between atoms: N_47  and  C_48 
REMARK   17  A    between atoms: C_48  and  C_50 
REMARK   18  A    between atoms: C_50  and  C_51 
REMARK   19  A    between atoms: C_50  and  N_59 
REMARK   20  A    between atoms: C_51  and  C_52 
REMARK   21  A    between atoms: C_52  and  C_53 
REMARK   22  A    between atoms: C_53  and  N_54 
REMARK       I    between atoms: N_54  and  C_55 
REMARK       I    between atoms: C_55  and  N_58 
ROOT
HETATM    1  C   UNK N   1      27.098  13.664   4.795  0.00  0.00     0.181 C 
ENDROOT
BRANCH   1   2
HETATM    2  C   UNK N   1      26.556  14.332   6.064  0.00  0.00     0.076 C 
BRANCH   2   3
HETATM    3  C   UNK N   1      25.252  15.104   6.096  0.00  0.00    -0.020 A 
HETATM    4  C   UNK N   1      24.957  16.362   5.580  0.00  0.00     0.000 A 
HETATM    5  C   UNK N   1      25.749  17.346   4.985  0.00  0.00     0.022 A 
HETATM    6  C   UNK N   1      23.606  16.554   5.755  0.00  0.00     0.050 A 
HETATM    7  C   UNK N   1      25.139  18.572   4.600  0.00  0.00    -0.049 A 
HETATM    8  C   UNK N   1      23.742  18.717   4.740  0.00  0.00     0.018 A 
HETATM    9  C   UNK N   1      22.947  17.707   5.300  0.00  0.00    -0.022 A 
HETATM   10  N   UNK N   1      23.042  15.511   6.379  0.00  0.00    -0.357 N 
HETATM   11  C   UNK N   1      24.036  14.620   6.615  0.00  0.00     0.024 A 
HETATM   12  H   UNK N   1      22.093  15.412   6.619  0.00  0.00     0.166 HD
BRANCH   7  13
HETATM   13  C   UNK N   1      25.972  19.746   4.113  0.00  0.00    -0.024 C 
HETATM   14  C   UNK N   1      25.378  20.425   2.886  0.00  0.00     0.019 C 
HETATM   15  C   UNK N   1      27.366  19.296   3.744  0.00  0.00     0.019 C 
HETATM   16  C   UNK N   1      26.046  20.803   5.200  0.00  0.00     0.019 C 
ENDBRANCH   7  13
BRANCH   9  17
HETATM   17  C   UNK N   1      21.439  17.863   5.399  0.00  0.00    -0.022 C 
HETATM   18  C   UNK N   1      20.997  19.072   4.590  0.00  0.00     0.019 C 
HETATM   19  C   UNK N   1      20.968  18.084   6.832  0.00  0.00     0.019 C 
HETATM   20  C   UNK N   1      20.742  16.627   4.865  0.00  0.00     0.019 C 
ENDBRANCH   9  17
BRANCH  11  21
HETATM   21  C   UNK N   1      23.751  13.327   7.353  0.00  0.00    -0.008 C 
HETATM   22  C   UNK N   1      24.588  13.302   8.619  0.00  0.00     0.021 C 
HETATM   23  C   UNK N   1      22.287  13.273   7.745  0.00  0.00     0.021 C 
HETATM   24  C   UNK N   1      24.074  12.073   6.568  0.00  0.00     0.021 C 
ENDBRANCH  11  21
ENDBRANCH   2   3
ENDBRANCH   1   2
BRANCH   1  25
HETATM   25  C   UNK N   1      28.522  13.151   4.713  0.00  0.00     0.241 C 
HETATM   26  O   UNK N   1      28.715  11.947   4.664  0.00  0.00    -0.271 OA
HETATM   27  N   UNK N   1      29.595  13.992   4.635  0.00  0.00    -0.346 N 
HETATM   28  H   UNK N   1      30.486  13.583   4.539  0.00  0.00     0.163 HD
BRANCH  27  29
HETATM   29  C   UNK N   1      29.524  15.440   4.684  0.00  0.00     0.176 C 
BRANCH  29  30
HETATM   30  C   UNK N   1      29.815  16.137   6.009  0.00  0.00     0.036 C 
BRANCH  30  31
HETATM   31  C   UNK N   1      29.378  17.599   5.993  0.00  0.00     0.023 C 
BRANCH  31  32
HETATM   32  C   UNK N   1      29.099  18.180   7.381  0.00  0.00     0.138 C 
BRANCH  32  33
HETATM   33  N   UNK N   1      29.250  17.201   8.436  0.00  0.00    -0.227 N 
HETATM   34  C   UNK N   1      29.553  17.542   9.781  0.00  0.00     0.665 C 
HETATM   35  N   UNK N   1      29.832  18.750  10.106  0.00  0.00    -0.235 N 
HETATM   36  N   UNK N   1      29.532  16.541  10.774  0.00  0.00    -0.235 N 
HETATM   37  H   UNK N   1      29.821  19.346  10.890  0.00  0.00     0.174 HD
ATOM     38  HN  UNK N   1      30.176  19.257   9.290  1.00  0.00     0.174 HD
HETATM   39  H   UNK N   1      30.175  15.797  10.738  0.00  0.00     0.174 HD
HETATM   40  H   UNK N   1      28.873  16.587  11.504  0.00  0.00     0.174 HD
HETATM   41  H   UNK N   1      29.137  16.249   8.210  0.00  0.00     0.177 HD
ENDBRANCH  32  33
ENDBRANCH  31  32
ENDBRANCH  30  31
ENDBRANCH  29  30
BRANCH  29  42
HETATM   42  C   UNK N   1      29.472  16.160   3.359  0.00  0.00     0.240 C 
HETATM   43  O   UNK N   1      28.387  16.428   2.879  0.00  0.00    -0.271 OA
HETATM   44  N   UNK N   1      30.586  16.544   2.694  0.00  0.00    -0.359 N 
HETATM   45  H   UNK N   1      30.466  17.047   1.855  0.00  0.00     0.162 HD
BRANCH  44  46
HETATM   46  C   UNK N   1      31.935  16.271   3.124  0.00  0.00     0.127 C 
BRANCH  46  47
HETATM   47  C   UNK N   1      32.495  17.438   3.944  0.00  0.00     0.058 C 
BRANCH  47  48
HETATM   48  C   UNK N   1      33.273  16.998   5.149  0.00  0.00    -0.057 A 
HETATM   49  C   UNK N   1      33.215  17.746   6.334  0.00  0.00     0.007 A 
HETATM   50  C   UNK N   1      33.938  17.339   7.459  0.00  0.00     0.001 A 
HETATM   51  C   UNK N   1      34.723  16.185   7.404  0.00  0.00     0.000 A 
HETATM   52  C   UNK N   1      34.790  15.441   6.222  0.00  0.00     0.001 A 
HETATM   53  C   UNK N   1      34.068  15.848   5.094  0.00  0.00     0.007 A 
ENDBRANCH  47  48
ENDBRANCH  46  47
ENDBRANCH  44  46
ENDBRANCH  29  42
ENDBRANCH  27  29
ENDBRANCH   1  25
BRANCH   1  54
HETATM   54  N   UNK N   1      26.477  14.168   3.589  0.00  0.00    -0.346 N 
HETATM   55  C   UNK N   1      25.388  13.647   2.983  0.00  0.00     0.240 C 
HETATM   56  O   UNK N   1      24.796  12.695   3.467  0.00  0.00    -0.271 OA
HETATM   57  H   UNK N   1      26.885  14.962   3.174  0.00  0.00     0.163 HD
BRANCH  55  58
HETATM   58  C   UNK N   1      24.943  14.249   1.684  0.00  0.00     0.167 C 
BRANCH  58  59
HETATM   59  C   UNK N   1      24.486  13.245   0.622  0.00  0.00     0.036 C 
BRANCH  59  60
HETATM   60  C   UNK N   1      23.022  13.387   0.216  0.00  0.00     0.023 C 
BRANCH  60  61
HETATM   61  C   UNK N   1      22.335  14.427   1.090  0.00  0.00     0.138 C 
BRANCH  61  62
HETATM   62  N   UNK N   1      21.042  13.957   1.518  0.00  0.00    -0.227 N 
HETATM   63  C   UNK N   1      20.831  13.434   2.821  0.00  0.00     0.665 C 
HETATM   64  N   UNK N   1      19.660  13.053   3.172  0.00  0.00    -0.235 N 
HETATM   65  N   UNK N   1      21.900  13.354   3.745  0.00  0.00    -0.235 N 
HETATM   66  H   UNK N   1      19.402  12.480   3.929  0.00  0.00     0.174 HD
ATOM     67  HN  UNK N   1      18.893  13.389   2.589  1.00  0.00     0.174 HD
HETATM   68  H   UNK N   1      22.843  13.400   3.468  0.00  0.00     0.174 HD
HETATM   69  H   UNK N   1      21.692  13.249   4.702  0.00  0.00     0.174 HD
HETATM   70  H   UNK N   1      20.284  13.998   0.890  0.00  0.00     0.177 HD
ENDBRANCH  61  62
ENDBRANCH  60  61
ENDBRANCH  59  60
ENDBRANCH  58  59
BRANCH  58  71
HETATM   71  N   UNK N   1      25.923  15.189   1.173  0.00  0.00    -0.418 N 
HETATM   72  H   UNK N   1      26.419  15.183   0.282  0.00  0.00     0.150 HD
HETATM   73  H   UNK N   1      26.147  15.966   1.793  0.00  0.00     0.150 HD
ENDBRANCH  58  71
ENDBRANCH  55  58
ENDBRANCH   1  54
TORSDOF 22
ENDMDL
MODEL 4
REMARK VINA RESULT:      -7.7      3.067      8.354
REMARK  22 active torsions:
REMARK  status: ('A' for Active; 'I' for Inactive)
REMARK    1  A    between atoms: C_2  and  C_5 
REMARK    2  A    between atoms: C_8  and  C_22 
REMARK    3  A    between atoms: C_9  and  C_18 
REMARK    4  A    between atoms: C_12  and  C_14 
REMARK    5  A    between atoms: C_22  and  C_23 
REMARK    6  A    between atoms: C_23  and  C_24 
REMARK    7  A    between atoms: C_23  and  N_47 
REMARK       I    between atoms: C_24  and  N_26 
REMARK    8  A    between atoms: C_27  and  N_26 
REMARK    9  A    between atoms: C_27  and  C_28 
REMARK   10  A    between atoms: C_27  and  C_36 
REMARK   11  A    between atoms: C_28  and  C_29 
REMARK   12  A    between atoms: C_29  and  C_30 
REMARK   13  A    between atoms: C_30  and  N_31 
REMARK       I    between atoms: N_31  and  C_32 
REMARK       I    between atoms: C_32  and  N_35 
REMARK       I    between atoms: C_36  and  N_38 
REMARK   14  A    between atoms: N_38  and  C_39 
REMARK   15  A    between atoms: C_39  and  C_40 
REMARK   16  A    between atoms: C_40  and  C_41 
REMARK       I    between atoms: N_47  and  C_48 
REMARK   17  A    between atoms: C_48  and  C_50 
REMARK   18  A    between atoms: C_50  and  C_51 
REMARK   19  A    between atoms: C_50  and  N_59 
REMARK   20  A    between atoms: C_51  and  C_52 
REMARK   21  A    between atoms: C_52  and  C_53 
REMARK   22  A    between atoms: C_53  and  N_54 
REMARK       I    between atoms: N_54  and  C_55 
REMARK       I    between atoms: C_55  and  N_58 
ROOT
HETATM    1  C   UNK N   1      21.591  14.051   5.837  0.00  0.00     0.181 C 
ENDROOT
BRANCH   1   2
HETATM    2  C   UNK N   1      21.635  14.236   4.315  0.00  0.00     0.076 C 
BRANCH   2   3
HETATM    3  C   UNK N   1      22.183  13.183   3.373  0.00  0.00    -0.020 A 
HETATM    4  C   UNK N   1      23.492  12.975   2.945  0.00  0.00     0.000 A 
HETATM    5  C   UNK N   1      24.671  13.697   3.134  0.00  0.00     0.022 A 
HETATM    6  C   UNK N   1      23.484  11.818   2.202  0.00  0.00     0.050 A 
HETATM    7  C   UNK N   1      25.862  13.236   2.510  0.00  0.00    -0.049 A 
HETATM    8  C   UNK N   1      25.836  12.015   1.801  0.00  0.00     0.018 A 
HETATM    9  C   UNK N   1      24.655  11.274   1.650  0.00  0.00    -0.022 A 
HETATM   10  N   UNK N   1      22.251  11.306   2.108  0.00  0.00    -0.357 N 
HETATM   11  C   UNK N   1      21.434  12.136   2.801  0.00  0.00     0.024 A 
HETATM   12  H   UNK N   1      21.988  10.487   1.629  0.00  0.00     0.166 HD
BRANCH   7  13
HETATM   13  C   UNK N   1      27.134  14.067   2.529  0.00  0.00    -0.024 C 
HETATM   14  C   UNK N   1      27.642  14.341   3.939  0.00  0.00     0.019 C 
HETATM   15  C   UNK N   1      26.908  15.406   1.868  0.00  0.00     0.019 C 
HETATM   16  C   UNK N   1      28.241  13.320   1.808  0.00  0.00     0.019 C 
ENDBRANCH   7  13
BRANCH   9  17
HETATM   17  C   UNK N   1      24.657   9.939   0.924  0.00  0.00    -0.022 C 
HETATM   18  C   UNK N   1      26.084   9.554   0.567  0.00  0.00     0.019 C 
HETATM   19  C   UNK N   1      23.864   9.981  -0.376  0.00  0.00     0.019 C 
HETATM   20  C   UNK N   1      24.057   8.858   1.801  0.00  0.00     0.019 C 
ENDBRANCH   9  17
BRANCH  11  21
HETATM   21  C   UNK N   1      19.943  11.873   2.867  0.00  0.00    -0.008 C 
HETATM   22  C   UNK N   1      19.598  11.414   4.272  0.00  0.00     0.021 C 
HETATM   23  C   UNK N   1      19.185  13.155   2.581  0.00  0.00     0.021 C 
HETATM   24  C   UNK N   1      19.451  10.812   1.906  0.00  0.00     0.021 C 
ENDBRANCH  11  21
ENDBRANCH   2   3
ENDBRANCH   1   2
BRANCH   1  25
HETATM   25  C   UNK N   1      20.474  14.637   6.677  0.00  0.00     0.241 C 
HETATM   26  O   UNK N   1      19.931  13.932   7.513  0.00  0.00    -0.271 OA
HETATM   27  N   UNK N   1      20.090  15.942   6.570  0.00  0.00    -0.346 N 
HETATM   28  H   UNK N   1      19.387  16.260   7.181  0.00  0.00     0.163 HD
BRANCH  27  29
HETATM   29  C   UNK N   1      20.637  16.897   5.624  0.00  0.00     0.176 C 
BRANCH  29  30
HETATM   30  C   UNK N   1      20.030  16.964   4.226  0.00  0.00     0.036 C 
BRANCH  30  31
HETATM   31  C   UNK N   1      20.197  18.345   3.598  0.00  0.00     0.023 C 
BRANCH  31  32
HETATM   32  C   UNK N   1      20.721  18.314   2.160  0.00  0.00     0.138 C 
BRANCH  32  33
HETATM   33  N   UNK N   1      19.692  17.982   1.198  0.00  0.00    -0.227 N 
HETATM   34  C   UNK N   1      19.600  16.719   0.557  0.00  0.00     0.665 C 
HETATM   35  N   UNK N   1      20.514  15.833   0.713  0.00  0.00    -0.235 N 
HETATM   36  N   UNK N   1      18.480  16.428  -0.250  0.00  0.00    -0.235 N 
HETATM   37  H   UNK N   1      20.641  14.858   0.660  0.00  0.00     0.174 HD
ATOM     38  HN  UNK N   1      21.390  16.284   0.977  1.00  0.00     0.174 HD
HETATM   39  H   UNK N   1      18.319  16.943  -1.074  0.00  0.00     0.174 HD
HETATM   40  H   UNK N   1      17.859  15.710   0.010  0.00  0.00     0.174 HD
HETATM   41  H   UNK N   1      19.021  18.669   0.976  0.00  0.00     0.177 HD
ENDBRANCH  32  33
ENDBRANCH  31  32
ENDBRANCH  30  31
ENDBRANCH  29  30
BRANCH  29  42
HETATM   42  C   UNK N   1      21.552  17.957   6.186  0.00  0.00     0.240 C 
HETATM   43  O   UNK N   1      21.075  18.839   6.876  0.00  0.00    -0.271 OA
HETATM   44  N   UNK N   1      22.889  17.952   5.978  0.00  0.00    -0.359 N 
HETATM   45  H   UNK N   1      23.422  18.656   6.415  0.00  0.00     0.162 HD
BRANCH  44  46
HETATM   46  C   UNK N   1      23.588  16.992   5.162  0.00  0.00     0.127 C 
BRANCH  46  47
HETATM   47  C   UNK N   1      23.978  17.602   3.810  0.00  0.00     0.058 C 
BRANCH  47  48
HETATM   48  C   UNK N   1      25.238  18.415   3.868  0.00  0.00    -0.057 A 
HETATM   49  C   UNK N   1      25.259  19.715   3.343  0.00  0.00     0.007 A 
HETATM   50  C   UNK N   1      26.431  20.475   3.395  0.00  0.00     0.001 A 
HETATM   51  C   UNK N   1      27.587  19.939   3.967  0.00  0.00     0.000 A 
HETATM   52  C   UNK N   1      27.573  18.638   4.483  0.00  0.00     0.001 A 
HETATM   53  C   UNK N   1      26.401  17.876   4.431  0.00  0.00     0.007 A 
ENDBRANCH  47  48
ENDBRANCH  46  47
ENDBRANCH  44  46
ENDBRANCH  29  42
ENDBRANCH  27  29
ENDBRANCH   1  25
BRANCH   1  54
HETATM   54  N   UNK N   1      22.909  13.942   6.424  0.00  0.00    -0.346 N 
HETATM   55  C   UNK N   1      23.359  12.910   7.172  0.00  0.00     0.240 C 
HETATM   56  O   UNK N   1      22.661  11.927   7.368  0.00  0.00    -0.271 OA
HETATM   57  H   UNK N   1      23.534  14.687   6.265  0.00  0.00     0.163 HD
BRANCH  55  58
HETATM   58  C   UNK N   1      24.726  13.016   7.777  0.00  0.00     0.167 C 
BRANCH  58  59
HETATM   59  C   UNK N   1      24.754  13.382   9.264  0.00  0.00     0.036 C 
BRANCH  59  60
HETATM   60  C   UNK N   1      24.824  12.181  10.203  0.00  0.00     0.023 C 
BRANCH  60  61
HETATM   61  C   UNK N   1      23.532  12.063  10.998  0.00  0.00     0.138 C 
BRANCH  61  62
HETATM   62  N   UNK N   1      22.492  12.862  10.400  0.00  0.00    -0.227 N 
HETATM   63  C   UNK N   1      21.136  12.745  10.802  0.00  0.00     0.665 C 
HETATM   64  N   UNK N   1      20.247  13.495  10.266  0.00  0.00    -0.235 N 
HETATM   65  N   UNK N   1      20.761  11.826  11.810  0.00  0.00    -0.235 N 
HETATM   66  H   UNK N   1      19.269  13.385  10.269  0.00  0.00     0.174 HD
ATOM     67  HN  UNK N   1      20.599  14.313   9.770  1.00  0.00     0.174 HD
HETATM   68  H   UNK N   1      21.336  11.074  12.080  0.00  0.00     0.174 HD
HETATM   69  H   UNK N   1      19.892  11.942  12.258  0.00  0.00     0.174 HD
HETATM   70  H   UNK N   1      22.729  13.507   9.693  0.00  0.00     0.177 HD
ENDBRANCH  61  62
ENDBRANCH  60  61
ENDBRANCH  59  60
ENDBRANCH  58  59
BRANCH  58  71
HETATM   71  N   UNK N   1      25.594  13.864   6.982  0.00  0.00    -0.418 N 
HETATM   72  H   UNK N   1      26.541  14.186   7.181  0.00  0.00     0.150 HD
HETATM   73  H   UNK N   1      25.201  14.184   6.097  0.00  0.00     0.150 HD
ENDBRANCH  58  71
ENDBRANCH  55  58
ENDBRANCH   1  54
TORSDOF 22
ENDMDL
MODEL 5
REMARK VINA RESULT:      -7.7      2.474      6.474
REMARK  22 active torsions:
REMARK  status: ('A' for Active; 'I' for Inactive)
REMARK    1  A    between atoms: C_2  and  C_5 
REMARK    2  A    between atoms: C_8  and  C_22 
REMARK    3  A    between atoms: C_9  and  C_18 
REMARK    4  A    between atoms: C_12  and  C_14 
REMARK    5  A    between atoms: C_22  and  C_23 
REMARK    6  A    between atoms: C_23  and  C_24 
REMARK    7  A    between atoms: C_23  and  N_47 
REMARK       I    between atoms: C_24  and  N_26 
REMARK    8  A    between atoms: C_27  and  N_26 
REMARK    9  A    between atoms: C_27  and  C_28 
REMARK   10  A    between atoms: C_27  and  C_36 
REMARK   11  A    between atoms: C_28  and  C_29 
REMARK   12  A    between atoms: C_29  and  C_30 
REMARK   13  A    between atoms: C_30  and  N_31 
REMARK       I    between atoms: N_31  and  C_32 
REMARK       I    between atoms: C_32  and  N_35 
REMARK       I    between atoms: C_36  and  N_38 
REMARK   14  A    between atoms: N_38  and  C_39 
REMARK   15  A    between atoms: C_39  and  C_40 
REMARK   16  A    between atoms: C_40  and  C_41 
REMARK       I    between atoms: N_47  and  C_48 
REMARK   17  A    between atoms: C_48  and  C_50 
REMARK   18  A    between atoms: C_50  and  C_51 
REMARK   19  A    between atoms: C_50  and  N_59 
REMARK   20  A    between atoms: C_51  and  C_52 
REMARK   21  A    between atoms: C_52  and  C_53 
REMARK   22  A    between atoms: C_53  and  N_54 
REMARK       I    between atoms: N_54  and  C_55 
REMARK       I    between atoms: C_55  and  N_58 
ROOT
HETATM    1  C   UNK N   1      24.205  14.368   5.125  0.00  0.00     0.181 C 
ENDROOT
BRANCH   1   2
HETATM    2  C   UNK N   1      25.002  14.448   3.817  0.00  0.00     0.076 C 
BRANCH   2   3
HETATM    3  C   UNK N   1      26.473  14.807   3.769  0.00  0.00    -0.020 A 
HETATM    4  C   UNK N   1      27.096  16.021   4.046  0.00  0.00     0.000 A 
HETATM    5  C   UNK N   1      26.597  17.291   4.337  0.00  0.00     0.022 A 
HETATM    6  C   UNK N   1      28.451  15.792   3.983  0.00  0.00     0.050 A 
HETATM    7  C   UNK N   1      27.517  18.359   4.527  0.00  0.00    -0.049 A 
HETATM    8  C   UNK N   1      28.901  18.083   4.512  0.00  0.00     0.018 A 
HETATM    9  C   UNK N   1      29.394  16.794   4.260  0.00  0.00    -0.022 A 
HETATM   10  N   UNK N   1      28.717  14.523   3.649  0.00  0.00    -0.357 N 
HETATM   11  C   UNK N   1      27.520  13.906   3.494  0.00  0.00     0.024 A 
HETATM   12  H   UNK N   1      29.607  14.117   3.539  0.00  0.00     0.166 HD
BRANCH   7  13
HETATM   13  C   UNK N   1      27.039  19.794   4.671  0.00  0.00    -0.024 C 
HETATM   14  C   UNK N   1      25.755  19.913   5.483  0.00  0.00     0.019 C 
HETATM   15  C   UNK N   1      26.768  20.405   3.316  0.00  0.00     0.019 C 
HETATM   16  C   UNK N   1      28.090  20.611   5.400  0.00  0.00     0.019 C 
ENDBRANCH   7  13
BRANCH   9  17
HETATM   17  C   UNK N   1      30.886  16.507   4.295  0.00  0.00    -0.022 C 
HETATM   18  C   UNK N   1      31.659  17.815   4.231  0.00  0.00     0.019 C 
HETATM   19  C   UNK N   1      31.344  15.656   3.117  0.00  0.00     0.019 C 
HETATM   20  C   UNK N   1      31.255  15.775   5.570  0.00  0.00     0.019 C 
ENDBRANCH   9  17
BRANCH  11  21
HETATM   21  C   UNK N   1      27.451  12.452   3.072  0.00  0.00    -0.008 C 
HETATM   22  C   UNK N   1      26.998  11.626   4.262  0.00  0.00     0.021 C 
HETATM   23  C   UNK N   1      26.433  12.291   1.959  0.00  0.00     0.021 C 
HETATM   24  C   UNK N   1      28.767  11.876   2.591  0.00  0.00     0.021 C 
ENDBRANCH  11  21
ENDBRANCH   2   3
ENDBRANCH   1   2
BRANCH   1  25
HETATM   25  C   UNK N   1      24.265  15.472   6.161  0.00  0.00     0.241 C 
HETATM   26  O   UNK N   1      25.076  15.386   7.069  0.00  0.00    -0.271 OA
HETATM   27  N   UNK N   1      23.481  16.587   6.083  0.00  0.00    -0.346 N 
HETATM   28  H   UNK N   1      23.610  17.281   6.770  0.00  0.00     0.163 HD
BRANCH  27  29
HETATM   29  C   UNK N   1      22.473  16.828   5.068  0.00  0.00     0.176 C 
BRANCH  29  30
HETATM   30  C   UNK N   1      22.906  17.467   3.752  0.00  0.00     0.036 C 
BRANCH  30  31
HETATM   31  C   UNK N   1      22.762  18.986   3.782  0.00  0.00     0.023 C 
BRANCH  31  32
HETATM   32  C   UNK N   1      21.320  19.476   3.626  0.00  0.00     0.138 C 
BRANCH  32  33
HETATM   33  N   UNK N   1      21.177  20.469   2.584  0.00  0.00    -0.227 N 
HETATM   34  C   UNK N   1      20.635  20.186   1.303  0.00  0.00     0.665 C 
HETATM   35  N   UNK N   1      20.351  18.983   0.960  0.00  0.00    -0.235 N 
HETATM   36  N   UNK N   1      20.391  21.242   0.402  0.00  0.00    -0.235 N 
HETATM   37  H   UNK N   1      19.770  18.490   0.337  0.00  0.00     0.174 HD
ATOM     38  HN  UNK N   1      20.906  18.327   1.511  1.00  0.00     0.174 HD
HETATM   39  H   UNK N   1      21.140  21.774   0.050  0.00  0.00     0.174 HD
HETATM   40  H   UNK N   1      19.469  21.448   0.123  0.00  0.00     0.174 HD
HETATM   41  H   UNK N   1      21.472  21.390   2.773  0.00  0.00     0.177 HD
ENDBRANCH  32  33
ENDBRANCH  31  32
ENDBRANCH  30  31
ENDBRANCH  29  30
BRANCH  29  42
HETATM   42  C   UNK N   1      21.139  16.153   5.266  0.00  0.00     0.240 C 
HETATM   43  O   UNK N   1      20.507  16.386   6.279  0.00  0.00    -0.271 OA
HETATM   44  N   UNK N   1      20.601  15.316   4.348  0.00  0.00    -0.359 N 
HETATM   45  H   UNK N   1      19.706  14.949   4.533  0.00  0.00     0.162 HD
BRANCH  44  46
HETATM   46  C   UNK N   1      21.245  14.925   3.119  0.00  0.00     0.127 C 
BRANCH  46  47
HETATM   47  C   UNK N   1      21.199  13.403   2.938  0.00  0.00     0.058 C 
BRANCH  47  48
HETATM   48  C   UNK N   1      22.053  12.914   1.805  0.00  0.00    -0.057 A 
HETATM   49  C   UNK N   1      22.207  11.537   1.587  0.00  0.00     0.007 A 
HETATM   50  C   UNK N   1      23.002  11.077   0.533  0.00  0.00     0.001 A 
HETATM   51  C   UNK N   1      23.648  11.991  -0.305  0.00  0.00     0.000 A 
HETATM   52  C   UNK N   1      23.504  13.364  -0.084  0.00  0.00     0.001 A 
HETATM   53  C   UNK N   1      22.710  13.826   0.972  0.00  0.00     0.007 A 
ENDBRANCH  47  48
ENDBRANCH  46  47
ENDBRANCH  44  46
ENDBRANCH  29  42
ENDBRANCH  27  29
ENDBRANCH   1  25
BRANCH   1  54
HETATM   54  N   UNK N   1      24.012  13.007   5.578  0.00  0.00    -0.346 N 
HETATM   55  C   UNK N   1      22.919  12.534   6.217  0.00  0.00     0.240 C 
HETATM   56  O   UNK N   1      21.951  13.250   6.418  0.00  0.00    -0.271 OA
HETATM   57  H   UNK N   1      24.743  12.370   5.407  0.00  0.00     0.163 HD
BRANCH  55  58
HETATM   58  C   UNK N   1      22.939  11.114   6.698  0.00  0.00     0.167 C 
BRANCH  58  59
HETATM   59  C   UNK N   1      23.172  10.937   8.201  0.00  0.00     0.036 C 
BRANCH  59  60
HETATM   60  C   UNK N   1      24.200  11.898   8.792  0.00  0.00     0.023 C 
BRANCH  60  61
HETATM   61  C   UNK N   1      23.513  12.895   9.714  0.00  0.00     0.138 C 
BRANCH  61  62
HETATM   62  N   UNK N   1      23.743  12.553  11.095  0.00  0.00    -0.227 N 
HETATM   63  C   UNK N   1      22.714  12.016  11.913  0.00  0.00     0.665 C 
HETATM   64  N   UNK N   1      22.968  11.698  13.127  0.00  0.00    -0.235 N 
HETATM   65  N   UNK N   1      21.417  11.805  11.390  0.00  0.00    -0.235 N 
HETATM   66  H   UNK N   1      22.336  11.533  13.863  0.00  0.00     0.174 HD
ATOM     67  HN  UNK N   1      23.956  11.602  13.362  1.00  0.00     0.174 HD
HETATM   68  H   UNK N   1      21.101  12.240  10.566  0.00  0.00     0.174 HD
HETATM   69  H   UNK N   1      20.805  11.199  11.869  0.00  0.00     0.174 HD
HETATM   70  H   UNK N   1      24.638  12.695  11.482  0.00  0.00     0.177 HD
ENDBRANCH  61  62
ENDBRANCH  60  61
ENDBRANCH  59  60
ENDBRANCH  58  59
BRANCH  58  71
HETATM   71  N   UNK N   1      23.833  10.296   5.899  0.00  0.00    -0.418 N 
HETATM   72  H   UNK N   1      24.360   9.466   6.167  0.00  0.00     0.150 HD
HETATM   73  H   UNK N   1      23.951  10.595   4.932  0.00  0.00     0.150 HD
ENDBRANCH  58  71
ENDBRANCH  55  58
ENDBRANCH   1  54
TORSDOF 22
ENDMDL
MODEL 6
REMARK VINA RESULT:      -7.7      2.977      6.937
REMARK  22 active torsions:
REMARK  status: ('A' for Active; 'I' for Inactive)
REMARK    1  A    between atoms: C_2  and  C_5 
REMARK    2  A    between atoms: C_8  and  C_22 
REMARK    3  A    between atoms: C_9  and  C_18 
REMARK    4  A    between atoms: C_12  and  C_14 
REMARK    5  A    between atoms: C_22  and  C_23 
REMARK    6  A    between atoms: C_23  and  C_24 
REMARK    7  A    between atoms: C_23  and  N_47 
REMARK       I    between atoms: C_24  and  N_26 
REMARK    8  A    between atoms: C_27  and  N_26 
REMARK    9  A    between atoms: C_27  and  C_28 
REMARK   10  A    between atoms: C_27  and  C_36 
REMARK   11  A    between atoms: C_28  and  C_29 
REMARK   12  A    between atoms: C_29  and  C_30 
REMARK   13  A    between atoms: C_30  and  N_31 
REMARK       I    between atoms: N_31  and  C_32 
REMARK       I    between atoms: C_32  and  N_35 
REMARK       I    between atoms: C_36  and  N_38 
REMARK   14  A    between atoms: N_38  and  C_39 
REMARK   15  A    between atoms: C_39  and  C_40 
REMARK   16  A    between atoms: C_40  and  C_41 
REMARK       I    between atoms: N_47  and  C_48 
REMARK   17  A    between atoms: C_48  and  C_50 
REMARK   18  A    between atoms: C_50  and  C_51 
REMARK   19  A    between atoms: C_50  and  N_59 
REMARK   20  A    between atoms: C_51  and  C_52 
REMARK   21  A    between atoms: C_52  and  C_53 
REMARK   22  A    between atoms: C_53  and  N_54 
REMARK       I    between atoms: N_54  and  C_55 
REMARK       I    between atoms: C_55  and  N_58 
ROOT
HETATM    1  C   UNK N   1      21.996  15.933   4.125  0.00  0.00     0.181 C 
ENDROOT
BRANCH   1   2
HETATM    2  C   UNK N   1      22.152  15.736   2.612  0.00  0.00     0.076 C 
BRANCH   2   3
HETATM    3  C   UNK N   1      22.444  14.389   1.982  0.00  0.00    -0.020 A 
HETATM    4  C   UNK N   1      23.644  13.687   1.914  0.00  0.00     0.000 A 
HETATM    5  C   UNK N   1      24.950  14.015   2.281  0.00  0.00     0.022 A 
HETATM    6  C   UNK N   1      23.354  12.463   1.356  0.00  0.00     0.050 A 
HETATM    7  C   UNK N   1      25.986  13.074   2.030  0.00  0.00    -0.049 A 
HETATM    8  C   UNK N   1      25.651  11.806   1.509  0.00  0.00     0.018 A 
HETATM    9  C   UNK N   1      24.329  11.469   1.182  0.00  0.00    -0.022 A 
HETATM   10  N   UNK N   1      22.057  12.366   1.038  0.00  0.00    -0.357 N 
HETATM   11  C   UNK N   1      21.483  13.542   1.395  0.00  0.00     0.024 A 
HETATM   12  H   UNK N   1      21.607  11.593   0.627  0.00  0.00     0.166 HD
BRANCH   7  13
HETATM   13  C   UNK N   1      27.447  13.437   2.241  0.00  0.00    -0.024 C 
HETATM   14  C   UNK N   1      27.777  14.854   1.790  0.00  0.00     0.019 C 
HETATM   15  C   UNK N   1      28.347  12.502   1.469  0.00  0.00     0.019 C 
HETATM   16  C   UNK N   1      27.781  13.365   3.720  0.00  0.00     0.019 C 
ENDBRANCH   7  13
BRANCH   9  17
HETATM   17  C   UNK N   1      23.981  10.082   0.666  0.00  0.00    -0.022 C 
HETATM   18  C   UNK N   1      23.568  10.169  -0.794  0.00  0.00     0.019 C 
HETATM   19  C   UNK N   1      22.821   9.451   1.426  0.00  0.00     0.019 C 
HETATM   20  C   UNK N   1      25.176   9.156   0.789  0.00  0.00     0.019 C 
ENDBRANCH   9  17
BRANCH  11  21
HETATM   21  C   UNK N   1      20.012  13.792   1.135  0.00  0.00    -0.008 C 
HETATM   22  C   UNK N   1      19.488  12.689   0.233  0.00  0.00     0.021 C 
HETATM   23  C   UNK N   1      19.247  13.745   2.444  0.00  0.00     0.021 C 
HETATM   24  C   UNK N   1      19.709  15.113   0.461  0.00  0.00     0.021 C 
ENDBRANCH  11  21
ENDBRANCH   2   3
ENDBRANCH   1   2
BRANCH   1  25
HETATM   25  C   UNK N   1      20.637  16.136   4.764  0.00  0.00     0.241 C 
HETATM   26  O   UNK N   1      19.914  17.025   4.345  0.00  0.00    -0.271 OA
HETATM   27  N   UNK N   1      20.171  15.323   5.756  0.00  0.00    -0.346 N 
HETATM   28  H   UNK N   1      19.260  15.491   6.090  0.00  0.00     0.163 HD
BRANCH  27  29
HETATM   29  C   UNK N   1      20.914  14.230   6.357  0.00  0.00     0.176 C 
BRANCH  29  30
HETATM   30  C   UNK N   1      21.640  14.485   7.675  0.00  0.00     0.036 C 
BRANCH  30  31
HETATM   31  C   UNK N   1      20.668  14.804   8.808  0.00  0.00     0.023 C 
BRANCH  31  32
HETATM   32  C   UNK N   1      20.324  16.290   8.930  0.00  0.00     0.138 C 
BRANCH  32  33
HETATM   33  N   UNK N   1      18.898  16.530   8.987  0.00  0.00    -0.227 N 
HETATM   34  C   UNK N   1      18.329  17.777   9.359  0.00  0.00     0.665 C 
HETATM   35  N   UNK N   1      19.067  18.734   9.786  0.00  0.00    -0.235 N 
HETATM   36  N   UNK N   1      16.938  17.969   9.240  0.00  0.00    -0.235 N 
HETATM   37  H   UNK N   1      19.065  19.716   9.863  0.00  0.00     0.174 HD
ATOM     38  HN  UNK N   1      19.934  18.358  10.170  1.00  0.00     0.174 HD
HETATM   39  H   UNK N   1      16.317  17.438   9.789  0.00  0.00     0.174 HD
HETATM   40  H   UNK N   1      16.585  18.637   8.608  0.00  0.00     0.174 HD
HETATM   41  H   UNK N   1      18.290  15.789   8.757  0.00  0.00     0.177 HD
ENDBRANCH  32  33
ENDBRANCH  31  32
ENDBRANCH  30  31
ENDBRANCH  29  30
BRANCH  29  42
HETATM   42  C   UNK N   1      20.661  12.852   5.798  0.00  0.00     0.240 C 
HETATM   43  O   UNK N   1      19.532  12.399   5.841  0.00  0.00    -0.271 OA
HETATM   44  N   UNK N   1      21.634  12.108   5.224  0.00  0.00    -0.359 N 
HETATM   45  H   UNK N   1      21.378  11.236   4.845  0.00  0.00     0.162 HD
BRANCH  44  46
HETATM   46  C   UNK N   1      23.018  12.500   5.128  0.00  0.00     0.127 C 
BRANCH  46  47
HETATM   47  C   UNK N   1      23.911  11.560   5.947  0.00  0.00     0.058 C 
BRANCH  47  48
HETATM   48  C   UNK N   1      23.983  11.926   7.400  0.00  0.00    -0.057 A 
HETATM   49  C   UNK N   1      24.860  12.933   7.827  0.00  0.00     0.007 A 
HETATM   50  C   UNK N   1      24.931  13.277   9.180  0.00  0.00     0.001 A 
HETATM   51  C   UNK N   1      24.127  12.615  10.112  0.00  0.00     0.000 A 
HETATM   52  C   UNK N   1      23.258  11.603   9.691  0.00  0.00     0.001 A 
HETATM   53  C   UNK N   1      23.188  11.257   8.337  0.00  0.00     0.007 A 
ENDBRANCH  47  48
ENDBRANCH  46  47
ENDBRANCH  44  46
ENDBRANCH  29  42
ENDBRANCH  27  29
ENDBRANCH   1  25
BRANCH   1  54
HETATM   54  N   UNK N   1      23.143  16.580   4.724  0.00  0.00    -0.346 N 
HETATM   55  C   UNK N   1      23.569  17.836   4.463  0.00  0.00     0.240 C 
HETATM   56  O   UNK N   1      22.949  18.562   3.701  0.00  0.00    -0.271 OA
HETATM   57  H   UNK N   1      23.660  16.059   5.380  0.00  0.00     0.163 HD
BRANCH  55  58
HETATM   58  C   UNK N   1      24.837  18.304   5.111  0.00  0.00     0.167 C 
BRANCH  58  59
HETATM   59  C   UNK N   1      25.650  19.315   4.298  0.00  0.00     0.036 C 
BRANCH  59  60
HETATM   60  C   UNK N   1      26.074  20.553   5.083  0.00  0.00     0.023 C 
BRANCH  60  61
HETATM   61  C   UNK N   1      27.427  20.317   5.741  0.00  0.00     0.138 C 
BRANCH  61  62
HETATM   62  N   UNK N   1      27.263  19.973   7.131  0.00  0.00    -0.227 N 
HETATM   63  C   UNK N   1      27.972  18.894   7.722  0.00  0.00     0.665 C 
HETATM   64  N   UNK N   1      27.820  18.640   8.967  0.00  0.00    -0.235 N 
HETATM   65  N   UNK N   1      28.866  18.114   6.952  0.00  0.00    -0.235 N 
HETATM   66  H   UNK N   1      28.054  17.820   9.459  0.00  0.00     0.174 HD
ATOM     67  HN  UNK N   1      27.400  19.385   9.523  1.00  0.00     0.174 HD
HETATM   68  H   UNK N   1      28.845  18.102   5.968  0.00  0.00     0.174 HD
HETATM   69  H   UNK N   1      29.535  17.562   7.418  0.00  0.00     0.174 HD
HETATM   70  H   UNK N   1      26.642  20.499   7.685  0.00  0.00     0.177 HD
ENDBRANCH  61  62
ENDBRANCH  60  61
ENDBRANCH  59  60
ENDBRANCH  58  59
BRANCH  58  71
HETATM   71  N   UNK N   1      25.641  17.187   5.570  0.00  0.00    -0.418 N 
HETATM   72  H   UNK N   1      25.786  16.275   5.137  0.00  0.00     0.150 HD
HETATM   73  H   UNK N   1      26.131  17.335   6.452  0.00  0.00     0.150 HD
ENDBRANCH  58  71
ENDBRANCH  55  58
ENDBRANCH   1  54
TORSDOF 22
ENDMDL
MODEL 7
REMARK VINA RESULT:      -7.7      3.504      8.185
REMARK  22 active torsions:
REMARK  status: ('A' for Active; 'I' for Inactive)
REMARK    1  A    between atoms: C_2  and  C_5 
REMARK    2  A    between atoms: C_8  and  C_22 
REMARK    3  A    between atoms: C_9  and  C_18 
REMARK    4  A    between atoms: C_12  and  C_14 
REMARK    5  A    between atoms: C_22  and  C_23 
REMARK    6  A    between atoms: C_23  and  C_24 
REMARK    7  A    between atoms: C_23  and  N_47 
REMARK       I    between atoms: C_24  and  N_26 
REMARK    8  A    between atoms: C_27  and  N_26 
REMARK    9  A    between atoms: C_27  and  C_28 
REMARK   10  A    between atoms: C_27  and  C_36 
REMARK   11  A    between atoms: C_28  and  C_29 
REMARK   12  A    between atoms: C_29  and  C_30 
REMARK   13  A    between atoms: C_30  and  N_31 
REMARK       I    between atoms: N_31  and  C_32 
REMARK       I    between atoms: C_32  and  N_35 
REMARK       I    between atoms: C_36  and  N_38 
REMARK   14  A    between atoms: N_38  and  C_39 
REMARK   15  A    between atoms: C_39  and  C_40 
REMARK   16  A    between atoms: C_40  and  C_41 
REMARK       I    between atoms: N_47  and  C_48 
REMARK   17  A    between atoms: C_48  and  C_50 
REMARK   18  A    between atoms: C_50  and  C_51 
REMARK   19  A    between atoms: C_50  and  N_59 
REMARK   20  A    between atoms: C_51  and  C_52 
REMARK   21  A    between atoms: C_52  and  C_53 
REMARK   22  A    between atoms: C_53  and  N_54 
REMARK       I    between atoms: N_54  and  C_55 
REMARK       I    between atoms: C_55  and  N_58 
ROOT
HETATM    1  C   UNK N   1      21.243  14.067   4.899  0.00  0.00     0.181 C 
ENDROOT
BRANCH   1   2
HETATM    2  C   UNK N   1      22.212  14.822   5.816  0.00  0.00     0.076 C 
BRANCH   2   3
HETATM    3  C   UNK N   1      23.200  15.850   5.304  0.00  0.00    -0.020 A 
HETATM    4  C   UNK N   1      22.962  17.054   4.647  0.00  0.00     0.000 A 
HETATM    5  C   UNK N   1      21.796  17.644   4.155  0.00  0.00     0.022 A 
HETATM    6  C   UNK N   1      24.180  17.678   4.511  0.00  0.00     0.050 A 
HETATM    7  C   UNK N   1      21.897  18.888   3.473  0.00  0.00    -0.049 A 
HETATM    8  C   UNK N   1      23.151  19.531   3.399  0.00  0.00     0.018 A 
HETATM    9  C   UNK N   1      24.310  18.950   3.932  0.00  0.00    -0.022 A 
HETATM   10  N   UNK N   1      25.171  16.927   5.010  0.00  0.00    -0.357 N 
HETATM   11  C   UNK N   1      24.596  15.795   5.483  0.00  0.00     0.024 A 
HETATM   12  H   UNK N   1      26.129  17.154   5.029  0.00  0.00     0.166 HD
BRANCH   7  13
HETATM   13  C   UNK N   1      20.698  19.495   2.762  0.00  0.00    -0.024 C 
HETATM   14  C   UNK N   1      20.995  19.870   1.316  0.00  0.00     0.019 C 
HETATM   15  C   UNK N   1      20.240  20.751   3.464  0.00  0.00     0.019 C 
HETATM   16  C   UNK N   1      19.564  18.486   2.723  0.00  0.00     0.019 C 
ENDBRANCH   7  13
BRANCH   9  17
HETATM   17  C   UNK N   1      25.643  19.679   3.885  0.00  0.00    -0.022 C 
HETATM   18  C   UNK N   1      25.657  20.641   2.708  0.00  0.00     0.019 C 
HETATM   19  C   UNK N   1      26.821  18.730   3.704  0.00  0.00     0.019 C 
HETATM   20  C   UNK N   1      25.866  20.460   5.165  0.00  0.00     0.019 C 
ENDBRANCH   9  17
BRANCH  11  21
HETATM   21  C   UNK N   1      25.445  14.694   6.086  0.00  0.00    -0.008 C 
HETATM   22  C   UNK N   1      25.254  13.433   5.263  0.00  0.00     0.021 C 
HETATM   23  C   UNK N   1      26.908  15.087   6.029  0.00  0.00     0.021 C 
HETATM   24  C   UNK N   1      25.105  14.356   7.523  0.00  0.00     0.021 C 
ENDBRANCH  11  21
ENDBRANCH   2   3
ENDBRANCH   1   2
BRANCH   1  25
HETATM   25  C   UNK N   1      19.795  14.490   4.752  0.00  0.00     0.241 C 
HETATM   26  O   UNK N   1      19.202  14.915   5.730  0.00  0.00    -0.271 OA
HETATM   27  N   UNK N   1      19.147  14.465   3.551  0.00  0.00    -0.346 N 
HETATM   28  H   UNK N   1      18.221  14.798   3.527  0.00  0.00     0.163 HD
BRANCH  27  29
HETATM   29  C   UNK N   1      19.718  13.986   2.306  0.00  0.00     0.176 C 
BRANCH  29  30
HETATM   30  C   UNK N   1      19.523  12.519   1.935  0.00  0.00     0.036 C 
BRANCH  30  31
HETATM   31  C   UNK N   1      20.177  12.176   0.600  0.00  0.00     0.023 C 
BRANCH  31  32
HETATM   32  C   UNK N   1      21.396  11.259   0.723  0.00  0.00     0.138 C 
BRANCH  32  33
HETATM   33  N   UNK N   1      21.168   9.948   0.155  0.00  0.00    -0.227 N 
HETATM   34  C   UNK N   1      22.113   9.276  -0.665  0.00  0.00     0.665 C 
HETATM   35  N   UNK N   1      23.186   9.864  -1.048  0.00  0.00    -0.235 N 
HETATM   36  N   UNK N   1      21.875   7.941  -1.050  0.00  0.00    -0.235 N 
HETATM   37  H   UNK N   1      24.099   9.652  -1.353  0.00  0.00     0.174 HD
ATOM     38  HN  UNK N   1      23.052  10.875  -1.031  1.00  0.00     0.174 HD
HETATM   39  H   UNK N   1      21.107   7.723  -1.626  0.00  0.00     0.174 HD
HETATM   40  H   UNK N   1      22.478   7.225  -0.743  0.00  0.00     0.174 HD
HETATM   41  H   UNK N   1      20.313   9.498   0.347  0.00  0.00     0.177 HD
ENDBRANCH  32  33
ENDBRANCH  31  32
ENDBRANCH  30  31
ENDBRANCH  29  30
BRANCH  29  42
HETATM   42  C   UNK N   1      20.193  15.035   1.331  0.00  0.00     0.240 C 
HETATM   43  O   UNK N   1      19.368  15.644   0.676  0.00  0.00    -0.271 OA
HETATM   44  N   UNK N   1      21.500  15.347   1.175  0.00  0.00    -0.359 N 
HETATM   45  H   UNK N   1      21.724  16.074   0.549  0.00  0.00     0.162 HD
BRANCH  44  46
HETATM   46  C   UNK N   1      22.587  14.693   1.859  0.00  0.00     0.127 C 
BRANCH  46  47
HETATM   47  C   UNK N   1      23.636  14.186   0.861  0.00  0.00     0.058 C 
BRANCH  47  48
HETATM   48  C   UNK N   1      25.025  14.153   1.426  0.00  0.00    -0.057 A 
HETATM   49  C   UNK N   1      25.674  15.350   1.765  0.00  0.00     0.007 A 
HETATM   50  C   UNK N   1      26.968  15.324   2.291  0.00  0.00     0.001 A 
HETATM   51  C   UNK N   1      27.621  14.103   2.478  0.00  0.00     0.000 A 
HETATM   52  C   UNK N   1      26.982  12.908   2.132  0.00  0.00     0.001 A 
HETATM   53  C   UNK N   1      25.686  12.933   1.604  0.00  0.00     0.007 A 
ENDBRANCH  47  48
ENDBRANCH  46  47
ENDBRANCH  44  46
ENDBRANCH  29  42
ENDBRANCH  27  29
ENDBRANCH   1  25
BRANCH   1  54
HETATM   54  N   UNK N   1      21.564  12.661   4.782  0.00  0.00    -0.346 N 
HETATM   55  C   UNK N   1      21.237  11.698   5.672  0.00  0.00     0.240 C 
HETATM   56  O   UNK N   1      20.568  11.959   6.660  0.00  0.00    -0.271 OA
HETATM   57  H   UNK N   1      22.068  12.381   3.983  0.00  0.00     0.163 HD
BRANCH  55  58
HETATM   58  C   UNK N   1      21.741  10.307   5.429  0.00  0.00     0.167 C 
BRANCH  58  59
HETATM   59  C   UNK N   1      22.681   9.757   6.505  0.00  0.00     0.036 C 
BRANCH  59  60
HETATM   60  C   UNK N   1      23.741  10.749   6.977  0.00  0.00     0.023 C 
BRANCH  60  61
HETATM   61  C   UNK N   1      23.602  10.990   8.473  0.00  0.00     0.138 C 
BRANCH  61  62
HETATM   62  N   UNK N   1      22.583  11.976   8.736  0.00  0.00    -0.227 N 
HETATM   63  C   UNK N   1      22.660  12.850   9.853  0.00  0.00     0.665 C 
HETATM   64  N   UNK N   1      21.750  13.731  10.035  0.00  0.00    -0.235 N 
HETATM   65  N   UNK N   1      23.749  12.772  10.752  0.00  0.00    -0.235 N 
HETATM   66  H   UNK N   1      21.543  14.241  10.851  0.00  0.00     0.174 HD
ATOM     67  HN  UNK N   1      21.160  13.930   9.227  1.00  0.00     0.174 HD
HETATM   68  H   UNK N   1      24.336  11.984  10.806  0.00  0.00     0.174 HD
HETATM   69  H   UNK N   1      23.928  13.536  11.348  0.00  0.00     0.174 HD
HETATM   70  H   UNK N   1      21.813  12.045   8.126  0.00  0.00     0.177 HD
ENDBRANCH  61  62
ENDBRANCH  60  61
ENDBRANCH  59  60
ENDBRANCH  58  59
BRANCH  58  71
HETATM   71  N   UNK N   1      22.286  10.167   4.093  0.00  0.00    -0.418 N 
HETATM   72  H   UNK N   1      21.819   9.880   3.233  0.00  0.00     0.150 HD
HETATM   73  H   UNK N   1      23.277  10.386   4.000  0.00  0.00     0.150 HD
ENDBRANCH  58  71
ENDBRANCH  55  58
ENDBRANCH   1  54
TORSDOF 22
ENDMDL
MODEL 8
REMARK VINA RESULT:      -7.6      2.564      5.794
REMARK  22 active torsions:
REMARK  status: ('A' for Active; 'I' for Inactive)
REMARK    1  A    between atoms: C_2  and  C_5 
REMARK    2  A    between atoms: C_8  and  C_22 
REMARK    3  A    between atoms: C_9  and  C_18 
REMARK    4  A    between atoms: C_12  and  C_14 
REMARK    5  A    between atoms: C_22  and  C_23 
REMARK    6  A    between atoms: C_23  and  C_24 
REMARK    7  A    between atoms: C_23  and  N_47 
REMARK       I    between atoms: C_24  and  N_26 
REMARK    8  A    between atoms: C_27  and  N_26 
REMARK    9  A    between atoms: C_27  and  C_28 
REMARK   10  A    between atoms: C_27  and  C_36 
REMARK   11  A    between atoms: C_28  and  C_29 
REMARK   12  A    between atoms: C_29  and  C_30 
REMARK   13  A    between atoms: C_30  and  N_31 
REMARK       I    between atoms: N_31  and  C_32 
REMARK       I    between atoms: C_32  and  N_35 
REMARK       I    between atoms: C_36  and  N_38 
REMARK   14  A    between atoms: N_38  and  C_39 
REMARK   15  A    between atoms: C_39  and  C_40 
REMARK   16  A    between atoms: C_40  and  C_41 
REMARK       I    between atoms: N_47  and  C_48 
REMARK   17  A    between atoms: C_48  and  C_50 
REMARK   18  A    between atoms: C_50  and  C_51 
REMARK   19  A    between atoms: C_50  and  N_59 
REMARK   20  A    between atoms: C_51  and  C_52 
REMARK   21  A    between atoms: C_52  and  C_53 
REMARK   22  A    between atoms: C_53  and  N_54 
REMARK       I    between atoms: N_54  and  C_55 
REMARK       I    between atoms: C_55  and  N_58 
ROOT
HETATM    1  C   UNK N   1      26.262  15.924   4.651  0.00  0.00     0.181 C 
ENDROOT
BRANCH   1   2
HETATM    2  C   UNK N   1      26.458  15.563   3.173  0.00  0.00     0.076 C 
BRANCH   2   3
HETATM    3  C   UNK N   1      27.073  14.254   2.720  0.00  0.00    -0.020 A 
HETATM    4  C   UNK N   1      26.467  13.152   2.123  0.00  0.00     0.000 A 
HETATM    5  C   UNK N   1      25.132  12.841   1.856  0.00  0.00     0.022 A 
HETATM    6  C   UNK N   1      27.475  12.279   1.789  0.00  0.00     0.050 A 
HETATM    7  C   UNK N   1      24.830  11.583   1.267  0.00  0.00    -0.049 A 
HETATM    8  C   UNK N   1      25.889  10.733   0.883  0.00  0.00     0.018 A 
HETATM    9  C   UNK N   1      27.229  11.071   1.117  0.00  0.00    -0.022 A 
HETATM   10  N   UNK N   1      28.672  12.747   2.168  0.00  0.00    -0.357 N 
HETATM   11  C   UNK N   1      28.447  13.947   2.758  0.00  0.00     0.024 A 
HETATM   12  H   UNK N   1      29.543  12.306   2.043  0.00  0.00     0.166 HD
BRANCH   7  13
HETATM   13  C   UNK N   1      23.394  11.110   1.114  0.00  0.00    -0.024 C 
HETATM   14  C   UNK N   1      22.911  10.286   2.300  0.00  0.00     0.019 C 
HETATM   15  C   UNK N   1      23.243  10.249  -0.119  0.00  0.00     0.019 C 
HETATM   16  C   UNK N   1      22.470  12.311   1.016  0.00  0.00     0.019 C 
ENDBRANCH   7  13
BRANCH   9  17
HETATM   17  C   UNK N   1      28.358  10.164   0.654  0.00  0.00    -0.022 C 
HETATM   18  C   UNK N   1      29.116   9.636   1.862  0.00  0.00     0.019 C 
HETATM   19  C   UNK N   1      29.365  10.890  -0.228  0.00  0.00     0.019 C 
HETATM   20  C   UNK N   1      27.805   8.993  -0.135  0.00  0.00     0.019 C 
ENDBRANCH   9  17
BRANCH  11  21
HETATM   21  C   UNK N   1      29.595  14.742   3.347  0.00  0.00    -0.008 C 
HETATM   22  C   UNK N   1      29.497  14.679   4.860  0.00  0.00     0.021 C 
HETATM   23  C   UNK N   1      30.914  14.126   2.925  0.00  0.00     0.021 C 
HETATM   24  C   UNK N   1      29.612  16.204   2.952  0.00  0.00     0.021 C 
ENDBRANCH  11  21
ENDBRANCH   2   3
ENDBRANCH   1   2
BRANCH   1  25
HETATM   25  C   UNK N   1      25.737  14.915   5.653  0.00  0.00     0.241 C 
HETATM   26  O   UNK N   1      26.534  14.285   6.329  0.00  0.00    -0.271 OA
HETATM   27  N   UNK N   1      24.402  14.727   5.865  0.00  0.00    -0.346 N 
HETATM   28  H   UNK N   1      24.140  14.086   6.565  0.00  0.00     0.163 HD
BRANCH  27  29
HETATM   29  C   UNK N   1      23.340  15.399   5.140  0.00  0.00     0.176 C 
BRANCH  29  30
HETATM   30  C   UNK N   1      22.793  14.737   3.878  0.00  0.00     0.036 C 
BRANCH  30  31
HETATM   31  C   UNK N   1      21.407  15.264   3.514  0.00  0.00     0.023 C 
BRANCH  31  32
HETATM   32  C   UNK N   1      21.337  15.924   2.135  0.00  0.00     0.138 C 
BRANCH  32  33
HETATM   33  N   UNK N   1      20.094  15.648   1.447  0.00  0.00    -0.227 N 
HETATM   34  C   UNK N   1      19.541  16.506   0.460  0.00  0.00     0.665 C 
HETATM   35  N   UNK N   1      20.066  17.649   0.213  0.00  0.00    -0.235 N 
HETATM   36  N   UNK N   1      18.408  16.087  -0.269  0.00  0.00    -0.235 N 
HETATM   37  H   UNK N   1      20.121  18.317  -0.508  0.00  0.00     0.174 HD
ATOM     38  HN  UNK N   1      20.595  17.969   1.024  1.00  0.00     0.174 HD
HETATM   39  H   UNK N   1      17.551  15.940   0.192  0.00  0.00     0.174 HD
HETATM   40  H   UNK N   1      18.475  15.942  -1.241  0.00  0.00     0.174 HD
HETATM   41  H   UNK N   1      19.607  14.823   1.675  0.00  0.00     0.177 HD
ENDBRANCH  32  33
ENDBRANCH  31  32
ENDBRANCH  30  31
ENDBRANCH  29  30
BRANCH  29  42
HETATM   42  C   UNK N   1      22.650  16.536   5.850  0.00  0.00     0.240 C 
HETATM   43  O   UNK N   1      22.967  17.679   5.576  0.00  0.00    -0.271 OA
HETATM   44  N   UNK N   1      21.670  16.339   6.762  0.00  0.00    -0.359 N 
HETATM   45  H   UNK N   1      21.240  17.136   7.149  0.00  0.00     0.162 HD
BRANCH  44  46
HETATM   46  C   UNK N   1      21.210  15.047   7.207  0.00  0.00     0.127 C 
BRANCH  46  47
HETATM   47  C   UNK N   1      20.890  15.067   8.706  0.00  0.00     0.058 C 
BRANCH  47  48
HETATM   48  C   UNK N   1      21.538  13.947   9.466  0.00  0.00    -0.057 A 
HETATM   49  C   UNK N   1      20.788  13.194  10.381  0.00  0.00     0.007 A 
HETATM   50  C   UNK N   1      21.388  12.150  11.091  0.00  0.00     0.001 A 
HETATM   51  C   UNK N   1      22.739  11.856  10.892  0.00  0.00     0.000 A 
HETATM   52  C   UNK N   1      23.492  12.610   9.986  0.00  0.00     0.001 A 
HETATM   53  C   UNK N   1      22.893  13.656   9.276  0.00  0.00     0.007 A 
ENDBRANCH  47  48
ENDBRANCH  46  47
ENDBRANCH  44  46
ENDBRANCH  29  42
ENDBRANCH  27  29
ENDBRANCH   1  25
BRANCH   1  54
HETATM   54  N   UNK N   1      25.938  17.321   4.846  0.00  0.00    -0.346 N 
HETATM   55  C   UNK N   1      26.799  18.285   5.243  0.00  0.00     0.240 C 
HETATM   56  O   UNK N   1      27.980  18.034   5.423  0.00  0.00    -0.271 OA
HETATM   57  H   UNK N   1      25.008  17.593   4.674  0.00  0.00     0.163 HD
BRANCH  55  58
HETATM   58  C   UNK N   1      26.259  19.662   5.483  0.00  0.00     0.167 C 
BRANCH  58  59
HETATM   59  C   UNK N   1      26.463  20.652   4.334  0.00  0.00     0.036 C 
BRANCH  59  60
HETATM   60  C   UNK N   1      25.574  20.396   3.120  0.00  0.00     0.023 C 
BRANCH  60  61
HETATM   61  C   UNK N   1      24.150  20.098   3.569  0.00  0.00     0.138 C 
BRANCH  61  62
HETATM   62  N   UNK N   1      23.200  20.585   2.601  0.00  0.00    -0.227 N 
HETATM   63  C   UNK N   1      21.820  20.261   2.681  0.00  0.00     0.665 C 
HETATM   64  N   UNK N   1      21.004  20.738   1.817  0.00  0.00    -0.235 N 
HETATM   65  N   UNK N   1      21.335  19.435   3.722  0.00  0.00    -0.235 N 
HETATM   66  H   UNK N   1      20.090  20.439   1.606  0.00  0.00     0.174 HD
ATOM     67  HN  UNK N   1      21.346  21.532   1.277  1.00  0.00     0.174 HD
HETATM   68  H   UNK N   1      21.924  18.857   4.257  0.00  0.00     0.174 HD
HETATM   69  H   UNK N   1      20.370  19.440   3.920  0.00  0.00     0.174 HD
HETATM   70  H   UNK N   1      23.516  21.157   1.864  0.00  0.00     0.177 HD
ENDBRANCH  61  62
ENDBRANCH  60  61
ENDBRANCH  59  60
ENDBRANCH  58  59
BRANCH  58  71
HETATM   71  N   UNK N   1      26.705  20.192   6.757  0.00  0.00    -0.418 N 
HETATM   72  H   UNK N   1      26.408  19.942   7.700  0.00  0.00     0.150 HD
HETATM   73  H   UNK N   1      27.418  20.919   6.702  0.00  0.00     0.150 HD
ENDBRANCH  58  71
ENDBRANCH  55  58
ENDBRANCH   1  54
TORSDOF 22
ENDMDL
MODEL 9
REMARK VINA RESULT:      -7.6      1.744      2.411
REMARK  22 active torsions:
REMARK  status: ('A' for Active; 'I' for Inactive)
REMARK    1  A    between atoms: C_2  and  C_5 
REMARK    2  A    between atoms: C_8  and  C_22 
REMARK    3  A    between atoms: C_9  and  C_18 
REMARK    4  A    between atoms: C_12  and  C_14 
REMARK    5  A    between atoms: C_22  and  C_23 
REMARK    6  A    between atoms: C_23  and  C_24 
REMARK    7  A    between atoms: C_23  and  N_47 
REMARK       I    between atoms: C_24  and  N_26 
REMARK    8  A    between atoms: C_27  and  N_26 
REMARK    9  A    between atoms: C_27  and  C_28 
REMARK   10  A    between atoms: C_27  and  C_36 
REMARK   11  A    between atoms: C_28  and  C_29 
REMARK   12  A    between atoms: C_29  and  C_30 
REMARK   13  A    between atoms: C_30  and  N_31 
REMARK       I    between atoms: N_31  and  C_32 
REMARK       I    between atoms: C_32  and  N_35 
REMARK       I    between atoms: C_36  and  N_38 
REMARK   14  A    between atoms: N_38  and  C_39 
REMARK   15  A    between atoms: C_39  and  C_40 
REMARK   16  A    between atoms: C_40  and  C_41 
REMARK       I    between atoms: N_47  and  C_48 
REMARK   17  A    between atoms: C_48  and  C_50 
REMARK   18  A    between atoms: C_50  and  C_51 
REMARK   19  A    between atoms: C_50  and  N_59 
REMARK   20  A    between atoms: C_51  and  C_52 
REMARK   21  A    between atoms: C_52  and  C_53 
REMARK   22  A    between atoms: C_53  and  N_54 
REMARK       I    between atoms: N_54  and  C_55 
REMARK       I    between atoms: C_55  and  N_58 
ROOT
HETATM    1  C   UNK N   1      25.863  15.087   3.766  0.00  0.00     0.181 C 
ENDROOT
BRANCH   1   2
HETATM    2  C   UNK N   1      26.946  14.285   4.499  0.00  0.00     0.076 C 
BRANCH   2   3
HETATM    3  C   UNK N   1      28.391  14.734   4.582  0.00  0.00    -0.020 A 
HETATM    4  C   UNK N   1      29.000  15.586   5.500  0.00  0.00     0.000 A 
HETATM    5  C   UNK N   1      28.494  16.370   6.538  0.00  0.00     0.022 A 
HETATM    6  C   UNK N   1      30.346  15.569   5.220  0.00  0.00     0.050 A 
HETATM    7  C   UNK N   1      29.393  17.186   7.277  0.00  0.00    -0.049 A 
HETATM    8  C   UNK N   1      30.776  17.104   7.005  0.00  0.00     0.018 A 
HETATM    9  C   UNK N   1      31.281  16.282   5.987  0.00  0.00    -0.022 A 
HETATM   10  N   UNK N   1      30.616  14.789   4.165  0.00  0.00    -0.357 N 
HETATM   11  C   UNK N   1      29.430  14.283   3.746  0.00  0.00     0.024 A 
HETATM   12  H   UNK N   1      31.501  14.617   3.770  0.00  0.00     0.166 HD
BRANCH   7  13
HETATM   13  C   UNK N   1      28.887  18.192   8.298  0.00  0.00    -0.024 C 
HETATM   14  C   UNK N   1      28.094  19.329   7.666  0.00  0.00     0.019 C 
HETATM   15  C   UNK N   1      30.038  18.815   9.051  0.00  0.00     0.019 C 
HETATM   16  C   UNK N   1      27.951  17.501   9.272  0.00  0.00     0.019 C 
ENDBRANCH   7  13
BRANCH   9  17
HETATM   17  C   UNK N   1      32.776  16.172   5.740  0.00  0.00    -0.022 C 
HETATM   18  C   UNK N   1      33.087  16.569   4.306  0.00  0.00     0.019 C 
HETATM   19  C   UNK N   1      33.298  14.755   5.939  0.00  0.00     0.019 C 
HETATM   20  C   UNK N   1      33.537  17.085   6.682  0.00  0.00     0.019 C 
ENDBRANCH   9  17
BRANCH  11  21
HETATM   21  C   UNK N   1      29.364  13.381   2.530  0.00  0.00    -0.008 C 
HETATM   22  C   UNK N   1      28.488  12.187   2.865  0.00  0.00     0.021 C 
HETATM   23  C   UNK N   1      28.733  14.129   1.372  0.00  0.00     0.021 C 
HETATM   24  C   UNK N   1      30.705  12.848   2.071  0.00  0.00     0.021 C 
ENDBRANCH  11  21
ENDBRANCH   2   3
ENDBRANCH   1   2
BRANCH   1  25
HETATM   25  C   UNK N   1      25.033  14.473   2.657  0.00  0.00     0.241 C 
HETATM   26  O   UNK N   1      25.464  14.497   1.515  0.00  0.00    -0.271 OA
HETATM   27  N   UNK N   1      23.846  13.845   2.898  0.00  0.00    -0.346 N 
HETATM   28  H   UNK N   1      23.387  13.432   2.131  0.00  0.00     0.163 HD
BRANCH  27  29
HETATM   29  C   UNK N   1      23.208  13.739   4.197  0.00  0.00     0.176 C 
BRANCH  29  30
HETATM   30  C   UNK N   1      22.108  14.736   4.549  0.00  0.00     0.036 C 
BRANCH  30  31
HETATM   31  C   UNK N   1      21.759  15.638   3.369  0.00  0.00     0.023 C 
BRANCH  31  32
HETATM   32  C   UNK N   1      20.274  15.630   2.999  0.00  0.00     0.138 C 
BRANCH  32  33
HETATM   33  N   UNK N   1      19.885  14.438   2.277  0.00  0.00    -0.227 N 
HETATM   34  C   UNK N   1      19.288  14.464   0.989  0.00  0.00     0.665 C 
HETATM   35  N   UNK N   1      18.947  15.573   0.444  0.00  0.00    -0.235 N 
HETATM   36  N   UNK N   1      19.081  13.255   0.294  0.00  0.00    -0.235 N 
HETATM   37  H   UNK N   1      18.784  15.962  -0.446  0.00  0.00     0.174 HD
ATOM     38  HN  UNK N   1      18.798  16.281   1.165  1.00  0.00     0.174 HD
HETATM   39  H   UNK N   1      18.460  12.580   0.651  0.00  0.00     0.174 HD
HETATM   40  H   UNK N   1      19.558  13.085  -0.550  0.00  0.00     0.174 HD
HETATM   41  H   UNK N   1      20.043  13.563   2.701  0.00  0.00     0.177 HD
ENDBRANCH  32  33
ENDBRANCH  31  32
ENDBRANCH  30  31
ENDBRANCH  29  30
BRANCH  29  42
HETATM   42  C   UNK N   1      23.463  12.471   4.974  0.00  0.00     0.240 C 
HETATM   43  O   UNK N   1      23.240  11.400   4.441  0.00  0.00    -0.271 OA
HETATM   44  N   UNK N   1      23.957  12.475   6.234  0.00  0.00    -0.359 N 
HETATM   45  H   UNK N   1      24.135  11.604   6.657  0.00  0.00     0.162 HD
BRANCH  44  46
HETATM   46  C   UNK N   1      24.240  13.663   7.001  0.00  0.00     0.127 C 
BRANCH  46  47
HETATM   47  C   UNK N   1      23.100  13.967   7.979  0.00  0.00     0.058 C 
BRANCH  47  48
HETATM   48  C   UNK N   1      23.222  13.232   9.281  0.00  0.00    -0.057 A 
HETATM   49  C   UNK N   1      24.487  12.861   9.761  0.00  0.00     0.007 A 
HETATM   50  C   UNK N   1      24.605  12.176  10.974  0.00  0.00     0.001 A 
HETATM   51  C   UNK N   1      23.462  11.855  11.710  0.00  0.00     0.000 A 
HETATM   52  C   UNK N   1      22.198  12.215  11.229  0.00  0.00     0.001 A 
HETATM   53  C   UNK N   1      22.078  12.900  10.015  0.00  0.00     0.007 A 
ENDBRANCH  47  48
ENDBRANCH  46  47
ENDBRANCH  44  46
ENDBRANCH  29  42
ENDBRANCH  27  29
ENDBRANCH   1  25
BRANCH   1  54
HETATM   54  N   UNK N   1      26.166  16.500   3.699  0.00  0.00    -0.346 N 
HETATM   55  C   UNK N   1      25.542  17.477   4.394  0.00  0.00     0.240 C 
HETATM   56  O   UNK N   1      24.669  17.209   5.205  0.00  0.00    -0.271 OA
HETATM   57  H   UNK N   1      26.891  16.775   3.092  0.00  0.00     0.163 HD
BRANCH  55  58
HETATM   58  C   UNK N   1      25.929  18.899   4.121  0.00  0.00     0.167 C 
BRANCH  58  59
HETATM   59  C   UNK N   1      25.183  19.567   2.962  0.00  0.00     0.036 C 
BRANCH  59  60
HETATM   60  C   UNK N   1      24.063  20.508   3.398  0.00  0.00     0.023 C 
BRANCH  60  61
HETATM   61  C   UNK N   1      22.710  19.912   3.037  0.00  0.00     0.138 C 
BRANCH  61  62
HETATM   62  N   UNK N   1      22.022  20.751   2.089  0.00  0.00    -0.227 N 
HETATM   63  C   UNK N   1      20.901  20.283   1.353  0.00  0.00     0.665 C 
HETATM   64  N   UNK N   1      20.300  21.069   0.542  0.00  0.00    -0.235 N 
HETATM   65  N   UNK N   1      20.428  18.961   1.527  0.00  0.00    -0.235 N 
HETATM   66  H   UNK N   1      19.675  20.842  -0.183  0.00  0.00     0.174 HD
ATOM     67  HN  UNK N   1      20.495  22.063   0.663  1.00  0.00     0.174 HD
HETATM   68  H   UNK N   1      20.975  18.253   1.938  0.00  0.00     0.174 HD
HETATM   69  H   UNK N   1      19.517  18.740   1.226  0.00  0.00     0.174 HD
HETATM   70  H   UNK N   1      22.336  21.673   1.948  0.00  0.00     0.177 HD
ENDBRANCH  61  62
ENDBRANCH  60  61
ENDBRANCH  59  60
ENDBRANCH  58  59
BRANCH  58  71
HETATM   71  N   UNK N   1      27.368  19.045   4.012  0.00  0.00    -0.418 N 
HETATM   72  H   UNK N   1      27.971  19.780   4.380  0.00  0.00     0.150 HD
HETATM   73  H   UNK N   1      27.844  18.308   3.492  0.00  0.00     0.150 HD
ENDBRANCH  58  71
ENDBRANCH  55  58
ENDBRANCH   1  54
TORSDOF 22
ENDMDL
