MODEL 1
REMARK VINA RESULT:      -5.5      0.000      0.000
REMARK  1 active torsions:
REMARK  status: ('A' for Active; 'I' for Inactive)
REMARK    1  A    between atoms: N_14  and  C_6 
REMARK       I    between atoms: N_8  and  C_7 
ROOT
HETATM    1  C   UNK N   1      36.256  13.802  14.731  0.00  0.00     0.711 A 
HETATM    2  N   UNK N   1      37.257  14.409  15.251  0.00  0.00    -0.232 N 
ATOM      3  HN  UNK N   1      37.835  15.024  14.679  1.00  0.00     0.174 HD
HETATM    4  N   UNK N   1      35.890  13.914  13.447  0.00  0.00    -0.113 N 
ATOM      5  HN  UNK N   1      36.337  14.475  12.722  1.00  0.00     0.203 HD
HETATM    6  N   UNK N   1      34.820  13.136  13.319  0.00  0.00     0.009 NA
HETATM    7  N   UNK N   1      34.541  12.568  14.485  0.00  0.00    -0.204 N 
HETATM    8  N   UNK N   1      35.426  12.972  15.382  0.00  0.00    -0.073 N 
HETATM    9  H   UNK N   1      37.469  14.281  16.205  0.00  0.00     0.174 HD
HETATM   10  H   UNK N   1      33.795  11.948  14.655  0.00  0.00     0.207 HD
ENDROOT
BRANCH   8  11
HETATM   11  C   UNK N   1      35.429  12.558  16.752  0.00  0.00     0.075 A 
HETATM   12  C   UNK N   1      35.133  13.465  17.780  0.00  0.00     0.032 A 
HETATM   13  C   UNK N   1      35.141  13.044  19.111  0.00  0.00     0.002 A 
HETATM   14  C   UNK N   1      35.443  11.715  19.421  0.00  0.00     0.000 A 
HETATM   15  C   UNK N   1      35.739  10.807  18.401  0.00  0.00     0.002 A 
HETATM   16  C   UNK N   1      35.732  11.227  17.071  0.00  0.00     0.032 A 
ENDBRANCH   8  11
TORSDOF 1
ENDMDL
MODEL 2
REMARK VINA RESULT:      -5.3      8.534     11.014
REMARK  1 active torsions:
REMARK  status: ('A' for Active; 'I' for Inactive)
REMARK    1  A    between atoms: N_14  and  C_6 
REMARK       I    between atoms: N_8  and  C_7 
ROOT
HETATM    1  C   UNK N   1      33.850  16.693   9.267  0.00  0.00     0.711 A 
HETATM    2  N   UNK N   1      33.087  15.687   9.477  0.00  0.00    -0.232 N 
ATOM      3  HN  UNK N   1      33.180  15.146  10.337  1.00  0.00     0.174 HD
HETATM    4  N   UNK N   1      34.799  17.111  10.117  0.00  0.00    -0.113 N 
ATOM      5  HN  UNK N   1      35.043  16.706  11.020  1.00  0.00     0.203 HD
HETATM    6  N   UNK N   1      35.353  18.167   9.530  0.00  0.00     0.009 NA
HETATM    7  N   UNK N   1      34.764  18.388   8.362  0.00  0.00    -0.204 N 
HETATM    8  N   UNK N   1      33.822  17.477   8.178  0.00  0.00    -0.073 N 
HETATM    9  H   UNK N   1      32.410  15.434   8.808  0.00  0.00     0.174 HD
HETATM   10  H   UNK N   1      34.991  19.111   7.734  0.00  0.00     0.207 HD
ENDROOT
BRANCH   8  11
HETATM   11  C   UNK N   1      32.982  17.411   7.020  0.00  0.00     0.075 A 
HETATM   12  C   UNK N   1      31.592  17.276   7.144  0.00  0.00     0.032 A 
HETATM   13  C   UNK N   1      30.788  17.213   6.005  0.00  0.00     0.002 A 
HETATM   14  C   UNK N   1      31.370  17.284   4.737  0.00  0.00     0.000 A 
HETATM   15  C   UNK N   1      32.754  17.418   4.606  0.00  0.00     0.002 A 
HETATM   16  C   UNK N   1      33.557  17.482   5.745  0.00  0.00     0.032 A 
ENDBRANCH   8  11
TORSDOF 1
ENDMDL
MODEL 3
REMARK VINA RESULT:      -5.3     14.787     15.831
REMARK  1 active torsions:
REMARK  status: ('A' for Active; 'I' for Inactive)
REMARK    1  A    between atoms: N_14  and  C_6 
REMARK       I    between atoms: N_8  and  C_7 
ROOT
HETATM    1  C   UNK N   1      21.686  12.046  11.662  0.00  0.00     0.711 A 
HETATM    2  N   UNK N   1      20.427  11.862  11.803  0.00  0.00    -0.232 N 
ATOM      3  HN  UNK N   1      20.070  11.383  12.630  1.00  0.00     0.174 HD
HETATM    4  N   UNK N   1      22.610  11.646  12.547  0.00  0.00    -0.113 N 
ATOM      5  HN  UNK N   1      22.454  11.156  13.427  1.00  0.00     0.203 HD
HETATM    6  N   UNK N   1      23.775  12.026  12.031  0.00  0.00     0.009 NA
HETATM    7  N   UNK N   1      23.570  12.637  10.871  0.00  0.00    -0.204 N 
HETATM    8  N   UNK N   1      22.271  12.660  10.622  0.00  0.00    -0.073 N 
HETATM    9  H   UNK N   1      19.802  12.182  11.111  0.00  0.00     0.174 HD
HETATM   10  H   UNK N   1      24.272  13.012  10.290  0.00  0.00     0.207 HD
ENDROOT
BRANCH   8  11
HETATM   11  C   UNK N   1      21.687  13.243   9.452  0.00  0.00     0.075 A 
HETATM   12  C   UNK N   1      21.122  14.526   9.492  0.00  0.00     0.032 A 
HETATM   13  C   UNK N   1      20.556  15.080   8.342  0.00  0.00     0.002 A 
HETATM   14  C   UNK N   1      20.553  14.354   7.148  0.00  0.00     0.000 A 
HETATM   15  C   UNK N   1      21.113  13.076   7.102  0.00  0.00     0.002 A 
HETATM   16  C   UNK N   1      21.679  12.522   8.251  0.00  0.00     0.032 A 
ENDBRANCH   8  11
TORSDOF 1
ENDMDL
MODEL 4
REMARK VINA RESULT:      -5.2      8.356     10.573
REMARK  1 active torsions:
REMARK  status: ('A' for Active; 'I' for Inactive)
REMARK    1  A    between atoms: N_14  and  C_6 
REMARK       I    between atoms: N_8  and  C_7 
ROOT
HETATM    1  C   UNK N   1      33.791  16.841   9.361  0.00  0.00     0.711 A 
HETATM    2  N   UNK N   1      33.300  15.760   9.841  0.00  0.00    -0.232 N 
ATOM      3  HN  UNK N   1      33.869  15.162  10.440  1.00  0.00     0.174 HD
HETATM    4  N   UNK N   1      35.041  17.269   9.591  0.00  0.00    -0.113 N 
ATOM      5  HN  UNK N   1      35.756  16.815  10.158  1.00  0.00     0.203 HD
HETATM    6  N   UNK N   1      35.147  18.411   8.920  0.00  0.00     0.009 NA
HETATM    7  N   UNK N   1      34.003  18.673   8.302  0.00  0.00    -0.204 N 
HETATM    8  N   UNK N   1      33.142  17.703   8.565  0.00  0.00    -0.073 N 
HETATM    9  H   UNK N   1      32.372  15.505   9.631  0.00  0.00     0.174 HD
HETATM   10  H   UNK N   1      33.824  19.461   7.739  0.00  0.00     0.207 HD
ENDROOT
BRANCH   8  11
HETATM   11  C   UNK N   1      31.803  17.659   8.060  0.00  0.00     0.075 A 
HETATM   12  C   UNK N   1      31.514  17.045   6.833  0.00  0.00     0.032 A 
HETATM   13  C   UNK N   1      30.203  17.010   6.356  0.00  0.00     0.002 A 
HETATM   14  C   UNK N   1      29.174  17.589   7.103  0.00  0.00     0.000 A 
HETATM   15  C   UNK N   1      29.454  18.202   8.327  0.00  0.00     0.002 A 
HETATM   16  C   UNK N   1      30.765  18.236   8.803  0.00  0.00     0.032 A 
ENDBRANCH   8  11
TORSDOF 1
ENDMDL
MODEL 5
REMARK VINA RESULT:      -5.1     17.180     18.483
REMARK  1 active torsions:
REMARK  status: ('A' for Active; 'I' for Inactive)
REMARK    1  A    between atoms: N_14  and  C_6 
REMARK       I    between atoms: N_8  and  C_7 
ROOT
HETATM    1  C   UNK N   1      44.682  22.794   1.847  0.00  0.00     0.711 A 
HETATM    2  N   UNK N   1      44.933  21.869   0.998  0.00  0.00    -0.232 N 
ATOM      3  HN  UNK N   1      45.803  21.888   0.465  1.00  0.00     0.174 HD
HETATM    4  N   UNK N   1      45.499  23.825   2.104  0.00  0.00    -0.113 N 
ATOM      5  HN  UNK N   1      46.405  24.018   1.677  1.00  0.00     0.203 HD
HETATM    6  N   UNK N   1      44.875  24.542   3.033  0.00  0.00     0.009 NA
HETATM    7  N   UNK N   1      43.717  23.970   3.334  0.00  0.00    -0.204 N 
HETATM    8  N   UNK N   1      43.577  22.875   2.604  0.00  0.00    -0.073 N 
HETATM    9  H   UNK N   1      44.287  21.139   0.859  0.00  0.00     0.174 HD
HETATM   10  H   UNK N   1      43.068  24.305   3.994  0.00  0.00     0.207 HD
ENDROOT
BRANCH   8  11
HETATM   11  C   UNK N   1      42.442  22.005   2.669  0.00  0.00     0.075 A 
HETATM   12  C   UNK N   1      42.494  20.804   3.391  0.00  0.00     0.032 A 
HETATM   13  C   UNK N   1      41.378  19.967   3.443  0.00  0.00     0.002 A 
HETATM   14  C   UNK N   1      40.205  20.327   2.775  0.00  0.00     0.000 A 
HETATM   15  C   UNK N   1      40.146  21.522   2.054  0.00  0.00     0.002 A 
HETATM   16  C   UNK N   1      41.262  22.358   2.001  0.00  0.00     0.032 A 
ENDBRANCH   8  11
TORSDOF 1
ENDMDL
MODEL 6
REMARK VINA RESULT:      -5.0     11.991     14.024
REMARK  1 active torsions:
REMARK  status: ('A' for Active; 'I' for Inactive)
REMARK    1  A    between atoms: N_14  and  C_6 
REMARK       I    between atoms: N_8  and  C_7 
ROOT
HETATM    1  C   UNK N   1      29.415  17.688   8.045  0.00  0.00     0.711 A 
HETATM    2  N   UNK N   1      30.374  17.478   7.223  0.00  0.00    -0.232 N 
ATOM      3  HN  UNK N   1      31.192  16.945   7.518  1.00  0.00     0.174 HD
HETATM    4  N   UNK N   1      29.396  17.247   9.310  0.00  0.00    -0.113 N 
ATOM      5  HN  UNK N   1      30.113  16.701   9.787  1.00  0.00     0.203 HD
HETATM    6  N   UNK N   1      28.241  17.673   9.812  0.00  0.00     0.009 NA
HETATM    7  N   UNK N   1      27.576  18.351   8.885  0.00  0.00    -0.204 N 
HETATM    8  N   UNK N   1      28.293  18.372   7.773  0.00  0.00    -0.073 N 
HETATM    9  H   UNK N   1      30.322  17.832   6.305  0.00  0.00     0.174 HD
HETATM   10  H   UNK N   1      26.694  18.771   9.005  0.00  0.00     0.207 HD
ENDROOT
BRANCH   8  11
HETATM   11  C   UNK N   1      27.882  19.019   6.563  0.00  0.00     0.075 A 
HETATM   12  C   UNK N   1      27.814  18.311   5.354  0.00  0.00     0.032 A 
HETATM   13  C   UNK N   1      27.411  18.957   4.184  0.00  0.00     0.002 A 
HETATM   14  C   UNK N   1      27.074  20.313   4.217  0.00  0.00     0.000 A 
HETATM   15  C   UNK N   1      27.140  21.023   5.418  0.00  0.00     0.002 A 
HETATM   16  C   UNK N   1      27.543  20.378   6.587  0.00  0.00     0.032 A 
ENDBRANCH   8  11
TORSDOF 1
ENDMDL
MODEL 7
REMARK VINA RESULT:      -5.0      3.894      5.244
REMARK  1 active torsions:
REMARK  status: ('A' for Active; 'I' for Inactive)
REMARK    1  A    between atoms: N_14  and  C_6 
REMARK       I    between atoms: N_8  and  C_7 
ROOT
HETATM    1  C   UNK N   1      34.558  15.510  10.953  0.00  0.00     0.711 A 
HETATM    2  N   UNK N   1      33.532  14.751  11.064  0.00  0.00    -0.232 N 
ATOM      3  HN  UNK N   1      32.640  15.037  10.661  1.00  0.00     0.174 HD
HETATM    4  N   UNK N   1      34.556  16.694  10.325  0.00  0.00    -0.113 N 
ATOM      5  HN  UNK N   1      33.769  17.148   9.862  1.00  0.00     0.203 HD
HETATM    6  N   UNK N   1      35.800  17.150  10.435  0.00  0.00     0.009 NA
HETATM    7  N   UNK N   1      36.537  16.275  11.107  0.00  0.00    -0.204 N 
HETATM    8  N   UNK N   1      35.780  15.242  11.440  0.00  0.00    -0.073 N 
HETATM    9  H   UNK N   1      33.605  13.892  11.540  0.00  0.00     0.174 HD
HETATM   10  H   UNK N   1      37.493  16.378  11.323  0.00  0.00     0.207 HD
ENDROOT
BRANCH   8  11
HETATM   11  C   UNK N   1      36.247  14.105  12.174  0.00  0.00     0.075 A 
HETATM   12  C   UNK N   1      36.081  14.026  13.564  0.00  0.00     0.032 A 
HETATM   13  C   UNK N   1      36.543  12.911  14.265  0.00  0.00     0.002 A 
HETATM   14  C   UNK N   1      37.173  11.869  13.579  0.00  0.00     0.000 A 
HETATM   15  C   UNK N   1      37.341  11.941  12.194  0.00  0.00     0.002 A 
HETATM   16  C   UNK N   1      36.880  13.056  11.494  0.00  0.00     0.032 A 
ENDBRANCH   8  11
TORSDOF 1
ENDMDL
MODEL 8
REMARK VINA RESULT:      -5.0     10.326     11.558
REMARK  1 active torsions:
REMARK  status: ('A' for Active; 'I' for Inactive)
REMARK    1  A    between atoms: N_14  and  C_6 
REMARK       I    between atoms: N_8  and  C_7 
ROOT
HETATM    1  C   UNK N   1      28.705  18.221   8.258  0.00  0.00     0.711 A 
HETATM    2  N   UNK N   1      28.472  18.887   7.189  0.00  0.00    -0.232 N 
ATOM      3  HN  UNK N   1      27.553  19.301   7.036  1.00  0.00     0.174 HD
HETATM    4  N   UNK N   1      27.805  18.015   9.230  0.00  0.00    -0.113 N 
ATOM      5  HN  UNK N   1      26.840  18.345   9.260  1.00  0.00     0.203 HD
HETATM    6  N   UNK N   1      28.439  17.288  10.145  0.00  0.00     0.009 NA
HETATM    7  N   UNK N   1      29.683  17.058   9.746  0.00  0.00    -0.204 N 
HETATM    8  N   UNK N   1      29.870  17.633   8.569  0.00  0.00    -0.073 N 
HETATM    9  H   UNK N   1      29.181  19.000   6.515  0.00  0.00     0.174 HD
HETATM   10  H   UNK N   1      30.358  16.544  10.246  0.00  0.00     0.207 HD
ENDROOT
BRANCH   8  11
HETATM   11  C   UNK N   1      31.101  17.589   7.839  0.00  0.00     0.075 A 
HETATM   12  C   UNK N   1      31.155  17.039   6.550  0.00  0.00     0.032 A 
HETATM   13  C   UNK N   1      32.364  17.004   5.852  0.00  0.00     0.002 A 
HETATM   14  C   UNK N   1      33.523  17.518   6.439  0.00  0.00     0.000 A 
HETATM   15  C   UNK N   1      33.475  18.066   7.723  0.00  0.00     0.002 A 
HETATM   16  C   UNK N   1      32.268  18.101   8.420  0.00  0.00     0.032 A 
ENDBRANCH   8  11
TORSDOF 1
ENDMDL
MODEL 9
REMARK VINA RESULT:      -4.9     16.836     17.797
REMARK  1 active torsions:
REMARK  status: ('A' for Active; 'I' for Inactive)
REMARK    1  A    between atoms: N_14  and  C_6 
REMARK       I    between atoms: N_8  and  C_7 
ROOT
HETATM    1  C   UNK N   1      44.188  22.546   3.846  0.00  0.00     0.711 A 
HETATM    2  N   UNK N   1      43.622  23.680   4.028  0.00  0.00    -0.232 N 
ATOM      3  HN  UNK N   1      44.136  24.442   4.470  1.00  0.00     0.174 HD
HETATM    4  N   UNK N   1      45.450  22.267   4.201  0.00  0.00    -0.113 N 
ATOM      5  HN  UNK N   1      46.119  22.891   4.652  1.00  0.00     0.203 HD
HETATM    6  N   UNK N   1      45.643  21.002   3.841  0.00  0.00     0.009 NA
HETATM    7  N   UNK N   1      44.537  20.525   3.284  0.00  0.00    -0.204 N 
HETATM    8  N   UNK N   1      43.616  21.474   3.278  0.00  0.00    -0.073 N 
HETATM    9  H   UNK N   1      42.689  23.816   3.742  0.00  0.00     0.174 HD
HETATM   10  H   UNK N   1      44.422  19.612   2.933  0.00  0.00     0.207 HD
ENDROOT
BRANCH   8  11
HETATM   11  C   UNK N   1      42.295  21.309   2.750  0.00  0.00     0.075 A 
HETATM   12  C   UNK N   1      41.864  22.048   1.639  0.00  0.00     0.032 A 
HETATM   13  C   UNK N   1      40.573  21.875   1.138  0.00  0.00     0.002 A 
HETATM   14  C   UNK N   1      39.707  20.962   1.745  0.00  0.00     0.000 A 
HETATM   15  C   UNK N   1      40.130  20.222   2.852  0.00  0.00     0.002 A 
HETATM   16  C   UNK N   1      41.420  20.395   3.353  0.00  0.00     0.032 A 
ENDBRANCH   8  11
TORSDOF 1
ENDMDL
