MODEL 1
REMARK VINA RESULT:      -7.4      0.000      0.000
REMARK  0 active torsions:
REMARK  status: ('A' for Active; 'I' for Inactive)
ROOT
HETATM    1  O   UNK N   1      19.188  14.188   9.669  0.00  0.00    -0.267 OA
HETATM    2  C   UNK N   1      20.337  13.807   9.813  0.00  0.00     0.259 A 
HETATM    3  N   UNK N   1      20.717  12.971  10.806  0.00  0.00    -0.322 N 
HETATM    4  C   UNK N   1      22.104  12.754  10.655  0.00  0.00     0.046 A 
HETATM    5  C   UNK N   1      22.921  11.955  11.453  0.00  0.00     0.030 A 
HETATM    6  C   UNK N   1      24.287  11.873  11.123  0.00  0.00     0.002 A 
HETATM    7  C   UNK N   1      24.802  12.583  10.017  0.00  0.00     0.001 A 
HETATM    8  C   UNK N   1      23.955  13.380   9.230  0.00  0.00     0.015 A 
HETATM    9  C   UNK N   1      22.605  13.445   9.576  0.00  0.00     0.009 A 
HETATM   10  C   UNK N   1      21.492  14.166   8.965  0.00  0.00     0.075 A 
HETATM   11  C   UNK N   1      21.575  14.951   7.875  0.00  0.00     0.101 A 
HETATM   12  N   UNK N   1      22.796  15.167   7.188  0.00  0.00    -0.351 N 
HETATM   13  C   UNK N   1      22.511  16.015   6.102  0.00  0.00     0.047 A 
HETATM   14  C   UNK N   1      23.421  16.477   5.158  0.00  0.00     0.030 A 
HETATM   15  C   UNK N   1      22.942  17.315   4.138  0.00  0.00     0.002 A 
HETATM   16  C   UNK N   1      21.576  17.669   4.085  0.00  0.00     0.001 A 
HETATM   17  C   UNK N   1      20.674  17.187   5.054  0.00  0.00     0.018 A 
HETATM   18  C   UNK N   1      21.175  16.358   6.055  0.00  0.00     0.043 A 
HETATM   19  C   UNK N   1      20.517  15.703   7.181  0.00  0.00     0.212 A 
HETATM   20  O   UNK N   1      19.333  15.768   7.466  0.00  0.00    -0.285 OA
HETATM   21  H   UNK N   1      20.137  12.588  11.503  0.00  0.00     0.169 HD
HETATM   22  H   UNK N   1      23.676  14.795   7.425  0.00  0.00     0.166 HD
ENDROOT
TORSDOF 0
ENDMDL
MODEL 2
REMARK VINA RESULT:      -7.4     16.790     18.204
REMARK  0 active torsions:
REMARK  status: ('A' for Active; 'I' for Inactive)
ROOT
HETATM    1  O   UNK N   1      26.514  23.309  -7.887  0.00  0.00    -0.267 OA
HETATM    2  C   UNK N   1      26.406  24.178  -7.038  0.00  0.00     0.259 A 
HETATM    3  N   UNK N   1      25.470  25.153  -7.099  0.00  0.00    -0.322 N 
HETATM    4  C   UNK N   1      25.645  25.966  -5.958  0.00  0.00     0.046 A 
HETATM    5  C   UNK N   1      24.900  27.088  -5.604  0.00  0.00     0.030 A 
HETATM    6  C   UNK N   1      25.242  27.757  -4.413  0.00  0.00     0.002 A 
HETATM    7  C   UNK N   1      26.309  27.295  -3.612  0.00  0.00     0.001 A 
HETATM    8  C   UNK N   1      27.042  26.161  -3.993  0.00  0.00     0.015 A 
HETATM    9  C   UNK N   1      26.684  25.515  -5.177  0.00  0.00     0.009 A 
HETATM   10  C   UNK N   1      27.237  24.329  -5.827  0.00  0.00     0.075 A 
HETATM   11  C   UNK N   1      28.263  23.592  -5.364  0.00  0.00     0.101 A 
HETATM   12  N   UNK N   1      28.936  23.904  -4.157  0.00  0.00    -0.351 N 
HETATM   13  C   UNK N   1      29.930  22.924  -3.976  0.00  0.00     0.047 A 
HETATM   14  C   UNK N   1      30.821  22.843  -2.912  0.00  0.00     0.030 A 
HETATM   15  C   UNK N   1      31.741  21.782  -2.905  0.00  0.00     0.002 A 
HETATM   16  C   UNK N   1      31.749  20.835  -3.952  0.00  0.00     0.001 A 
HETATM   17  C   UNK N   1      30.835  20.940  -5.019  0.00  0.00     0.018 A 
HETATM   18  C   UNK N   1      29.934  22.002  -5.002  0.00  0.00     0.043 A 
HETATM   19  C   UNK N   1      28.879  22.383  -5.936  0.00  0.00     0.212 A 
HETATM   20  O   UNK N   1      28.577  21.803  -6.966  0.00  0.00    -0.285 OA
HETATM   21  H   UNK N   1      24.795  25.274  -7.806  0.00  0.00     0.169 HD
HETATM   22  H   UNK N   1      28.746  24.663  -3.558  0.00  0.00     0.166 HD
ENDROOT
TORSDOF 0
ENDMDL
MODEL 3
REMARK VINA RESULT:      -7.3      1.089      5.854
REMARK  0 active torsions:
REMARK  status: ('A' for Active; 'I' for Inactive)
ROOT
HETATM    1  O   UNK N   1      18.956  15.953   7.614  0.00  0.00    -0.267 OA
HETATM    2  C   UNK N   1      20.022  16.091   7.038  0.00  0.00     0.259 A 
HETATM    3  N   UNK N   1      20.177  16.895   5.961  0.00  0.00    -0.322 N 
HETATM    4  C   UNK N   1      21.531  16.803   5.570  0.00  0.00     0.046 A 
HETATM    5  C   UNK N   1      22.145  17.465   4.508  0.00  0.00     0.030 A 
HETATM    6  C   UNK N   1      23.517  17.233   4.292  0.00  0.00     0.002 A 
HETATM    7  C   UNK N   1      24.236  16.355   5.131  0.00  0.00     0.001 A 
HETATM    8  C   UNK N   1      23.591  15.702   6.193  0.00  0.00     0.015 A 
HETATM    9  C   UNK N   1      22.232  15.948   6.388  0.00  0.00     0.009 A 
HETATM   10  C   UNK N   1      21.299  15.438   7.388  0.00  0.00     0.075 A 
HETATM   11  C   UNK N   1      21.607  14.579   8.377  0.00  0.00     0.101 A 
HETATM   12  N   UNK N   1      22.916  14.063   8.552  0.00  0.00    -0.351 N 
HETATM   13  C   UNK N   1      22.878  13.220   9.679  0.00  0.00     0.047 A 
HETATM   14  C   UNK N   1      23.947  12.512  10.213  0.00  0.00     0.030 A 
HETATM   15  C   UNK N   1      23.713  11.725  11.352  0.00  0.00     0.002 A 
HETATM   16  C   UNK N   1      22.424  11.665  11.926  0.00  0.00     0.001 A 
HETATM   17  C   UNK N   1      21.356  12.393  11.365  0.00  0.00     0.018 A 
HETATM   18  C   UNK N   1      21.616  13.165  10.235  0.00  0.00     0.043 A 
HETATM   19  C   UNK N   1      20.748  14.021   9.435  0.00  0.00     0.212 A 
HETATM   20  O   UNK N   1      19.560  14.228   9.622  0.00  0.00    -0.285 OA
HETATM   21  H   UNK N   1      19.479  17.440   5.531  0.00  0.00     0.169 HD
HETATM   22  H   UNK N   1      23.702  14.256   7.991  0.00  0.00     0.166 HD
ENDROOT
TORSDOF 0
ENDMDL
MODEL 4
REMARK VINA RESULT:      -7.2     16.733     17.553
REMARK  0 active torsions:
REMARK  status: ('A' for Active; 'I' for Inactive)
ROOT
HETATM    1  O   UNK N   1      28.110  22.026  -7.624  0.00  0.00    -0.267 OA
HETATM    2  C   UNK N   1      28.775  22.056  -6.602  0.00  0.00     0.259 A 
HETATM    3  N   UNK N   1      29.756  21.164  -6.336  0.00  0.00    -0.322 N 
HETATM    4  C   UNK N   1      30.300  21.510  -5.080  0.00  0.00     0.046 A 
HETATM    5  C   UNK N   1      31.339  20.869  -4.409  0.00  0.00     0.030 A 
HETATM    6  C   UNK N   1      31.732  21.382  -3.158  0.00  0.00     0.002 A 
HETATM    7  C   UNK N   1      31.085  22.512  -2.612  0.00  0.00     0.001 A 
HETATM    8  C   UNK N   1      30.042  23.138  -3.311  0.00  0.00     0.015 A 
HETATM    9  C   UNK N   1      29.671  22.612  -4.548  0.00  0.00     0.009 A 
HETATM   10  C   UNK N   1      28.648  23.033  -5.502  0.00  0.00     0.075 A 
HETATM   11  C   UNK N   1      27.823  24.085  -5.348  0.00  0.00     0.101 A 
HETATM   12  N   UNK N   1      27.864  24.919  -4.203  0.00  0.00    -0.351 N 
HETATM   13  C   UNK N   1      26.887  25.915  -4.385  0.00  0.00     0.047 A 
HETATM   14  C   UNK N   1      26.592  26.949  -3.505  0.00  0.00     0.030 A 
HETATM   15  C   UNK N   1      25.582  27.854  -3.868  0.00  0.00     0.002 A 
HETATM   16  C   UNK N   1      24.895  27.706  -5.093  0.00  0.00     0.001 A 
HETATM   17  C   UNK N   1      25.214  26.649  -5.968  0.00  0.00     0.018 A 
HETATM   18  C   UNK N   1      26.219  25.765  -5.584  0.00  0.00     0.043 A 
HETATM   19  C   UNK N   1      26.778  24.595  -6.251  0.00  0.00     0.212 A 
HETATM   20  O   UNK N   1      26.443  24.150  -7.337  0.00  0.00    -0.285 OA
HETATM   21  H   UNK N   1      30.038  20.414  -6.910  0.00  0.00     0.169 HD
HETATM   22  H   UNK N   1      28.461  24.820  -3.426  0.00  0.00     0.166 HD
ENDROOT
TORSDOF 0
ENDMDL
MODEL 5
REMARK VINA RESULT:      -7.1     17.610     18.176
REMARK  0 active torsions:
REMARK  status: ('A' for Active; 'I' for Inactive)
ROOT
HETATM    1  O   UNK N   1      26.238  22.252  -8.938  0.00  0.00    -0.267 OA
HETATM    2  C   UNK N   1      27.185  21.979  -8.220  0.00  0.00     0.259 A 
HETATM    3  N   UNK N   1      28.000  20.923  -8.446  0.00  0.00    -0.322 N 
HETATM    4  C   UNK N   1      28.972  20.925  -7.422  0.00  0.00     0.046 A 
HETATM    5  C   UNK N   1      30.019  20.020  -7.257  0.00  0.00     0.030 A 
HETATM    6  C   UNK N   1      30.883  20.206  -6.161  0.00  0.00     0.002 A 
HETATM    7  C   UNK N   1      30.685  21.279  -5.265  0.00  0.00     0.001 A 
HETATM    8  C   UNK N   1      29.621  22.175  -5.457  0.00  0.00     0.015 A 
HETATM    9  C   UNK N   1      28.779  21.971  -6.550  0.00  0.00     0.009 A 
HETATM   10  C   UNK N   1      27.613  22.717  -7.015  0.00  0.00     0.075 A 
HETATM   11  C   UNK N   1      27.109  23.820  -6.431  0.00  0.00     0.101 A 
HETATM   12  N   UNK N   1      27.678  24.387  -5.263  0.00  0.00    -0.351 N 
HETATM   13  C   UNK N   1      26.915  25.526  -4.946  0.00  0.00     0.047 A 
HETATM   14  C   UNK N   1      27.128  26.388  -3.877  0.00  0.00     0.030 A 
HETATM   15  C   UNK N   1      26.259  27.481  -3.729  0.00  0.00     0.002 A 
HETATM   16  C   UNK N   1      25.204  27.685  -4.646  0.00  0.00     0.001 A 
HETATM   17  C   UNK N   1      25.009  26.796  -5.721  0.00  0.00     0.018 A 
HETATM   18  C   UNK N   1      25.885  25.720  -5.845  0.00  0.00     0.043 A 
HETATM   19  C   UNK N   1      25.956  24.645  -6.828  0.00  0.00     0.212 A 
HETATM   20  O   UNK N   1      25.211  24.484  -7.781  0.00  0.00    -0.285 OA
HETATM   21  H   UNK N   1      27.929  20.276  -9.184  0.00  0.00     0.169 HD
HETATM   22  H   UNK N   1      28.458  24.048  -4.767  0.00  0.00     0.166 HD
ENDROOT
TORSDOF 0
ENDMDL
MODEL 6
REMARK VINA RESULT:      -7.1     15.117     16.116
REMARK  0 active torsions:
REMARK  status: ('A' for Active; 'I' for Inactive)
ROOT
HETATM    1  O   UNK N   1      37.243   9.519  14.721  0.00  0.00    -0.267 OA
HETATM    2  C   UNK N   1      36.781  10.313  15.524  0.00  0.00     0.259 A 
HETATM    3  N   UNK N   1      36.571  10.006  16.825  0.00  0.00    -0.322 N 
HETATM    4  C   UNK N   1      36.034  11.158  17.439  0.00  0.00     0.046 A 
HETATM    5  C   UNK N   1      35.668  11.304  18.776  0.00  0.00     0.030 A 
HETATM    6  C   UNK N   1      35.152  12.548  19.186  0.00  0.00     0.002 A 
HETATM    7  C   UNK N   1      35.015  13.607  18.263  0.00  0.00     0.001 A 
HETATM    8  C   UNK N   1      35.393  13.431  16.922  0.00  0.00     0.015 A 
HETATM    9  C   UNK N   1      35.901  12.190  16.540  0.00  0.00     0.009 A 
HETATM   10  C   UNK N   1      36.379  11.706  15.247  0.00  0.00     0.075 A 
HETATM   11  C   UNK N   1      36.421  12.427  14.111  0.00  0.00     0.101 A 
HETATM   12  N   UNK N   1      35.987  13.775  14.052  0.00  0.00    -0.351 N 
HETATM   13  C   UNK N   1      36.188  14.213  12.730  0.00  0.00     0.047 A 
HETATM   14  C   UNK N   1      35.905  15.480  12.231  0.00  0.00     0.030 A 
HETATM   15  C   UNK N   1      36.182  15.730  10.878  0.00  0.00     0.002 A 
HETATM   16  C   UNK N   1      36.731  14.718  10.061  0.00  0.00     0.001 A 
HETATM   17  C   UNK N   1      37.007  13.442  10.591  0.00  0.00     0.018 A 
HETATM   18  C   UNK N   1      36.723  13.220  11.936  0.00  0.00     0.043 A 
HETATM   19  C   UNK N   1      36.893  12.037  12.772  0.00  0.00     0.212 A 
HETATM   20  O   UNK N   1      37.344  10.959  12.421  0.00  0.00    -0.285 OA
HETATM   21  H   UNK N   1      36.756   9.143  17.260  0.00  0.00     0.169 HD
HETATM   22  H   UNK N   1      35.616  14.305  14.795  0.00  0.00     0.166 HD
ENDROOT
TORSDOF 0
ENDMDL
MODEL 7
REMARK VINA RESULT:      -7.0      7.887     10.171
REMARK  0 active torsions:
REMARK  status: ('A' for Active; 'I' for Inactive)
ROOT
HETATM    1  O   UNK N   1      29.272  17.584   8.919  0.00  0.00    -0.267 OA
HETATM    2  C   UNK N   1      28.761  18.237   8.024  0.00  0.00     0.259 A 
HETATM    3  N   UNK N   1      27.710  19.065   8.226  0.00  0.00    -0.322 N 
HETATM    4  C   UNK N   1      27.396  19.644   6.977  0.00  0.00     0.046 A 
HETATM    5  C   UNK N   1      26.385  20.565   6.709  0.00  0.00     0.030 A 
HETATM    6  C   UNK N   1      26.243  21.022   5.385  0.00  0.00     0.002 A 
HETATM    7  C   UNK N   1      27.105  20.554   4.369  0.00  0.00     0.001 A 
HETATM    8  C   UNK N   1      28.115  19.626   4.669  0.00  0.00     0.015 A 
HETATM    9  C   UNK N   1      28.236  19.189   5.988  0.00  0.00     0.009 A 
HETATM   10  C   UNK N   1      29.172  18.253   6.606  0.00  0.00     0.075 A 
HETATM   11  C   UNK N   1      30.160  17.600   5.967  0.00  0.00     0.101 A 
HETATM   12  N   UNK N   1      30.399  17.760   4.579  0.00  0.00    -0.351 N 
HETATM   13  C   UNK N   1      31.505  16.951   4.258  0.00  0.00     0.047 A 
HETATM   14  C   UNK N   1      32.086  16.812   3.003  0.00  0.00     0.030 A 
HETATM   15  C   UNK N   1      33.194  15.959   2.881  0.00  0.00     0.002 A 
HETATM   16  C   UNK N   1      33.692  15.269   4.009  0.00  0.00     0.001 A 
HETATM   17  C   UNK N   1      33.085  15.426   5.270  0.00  0.00     0.018 A 
HETATM   18  C   UNK N   1      31.987  16.279   5.362  0.00  0.00     0.043 A 
HETATM   19  C   UNK N   1      31.155  16.655   6.500  0.00  0.00     0.212 A 
HETATM   20  O   UNK N   1      31.277  16.265   7.649  0.00  0.00    -0.285 OA
HETATM   21  H   UNK N   1      27.252  19.232   9.081  0.00  0.00     0.169 HD
HETATM   22  H   UNK N   1      29.889  18.327   3.957  0.00  0.00     0.166 HD
ENDROOT
TORSDOF 0
ENDMDL
MODEL 8
REMARK VINA RESULT:      -7.0     15.162     16.984
REMARK  0 active torsions:
REMARK  status: ('A' for Active; 'I' for Inactive)
ROOT
HETATM    1  O   UNK N   1      37.688  10.273  12.465  0.00  0.00    -0.267 OA
HETATM    2  C   UNK N   1      37.333  11.416  12.227  0.00  0.00     0.259 A 
HETATM    3  N   UNK N   1      37.443  11.980  11.003  0.00  0.00    -0.322 N 
HETATM    4  C   UNK N   1      36.935  13.293  11.107  0.00  0.00     0.046 A 
HETATM    5  C   UNK N   1      36.845  14.242  10.090  0.00  0.00     0.030 A 
HETATM    6  C   UNK N   1      36.300  15.500  10.409  0.00  0.00     0.002 A 
HETATM    7  C   UNK N   1      35.862  15.780  11.722  0.00  0.00     0.001 A 
HETATM    8  C   UNK N   1      35.964  14.805  12.726  0.00  0.00     0.015 A 
HETATM    9  C   UNK N   1      36.507  13.566  12.385  0.00  0.00     0.009 A 
HETATM   10  C   UNK N   1      36.737  12.366  13.187  0.00  0.00     0.075 A 
HETATM   11  C   UNK N   1      36.438  12.231  14.492  0.00  0.00     0.101 A 
HETATM   12  N   UNK N   1      35.853  13.277  15.249  0.00  0.00    -0.351 N 
HETATM   13  C   UNK N   1      35.666  12.786  16.554  0.00  0.00     0.047 A 
HETATM   14  C   UNK N   1      35.112  13.480  17.623  0.00  0.00     0.030 A 
HETATM   15  C   UNK N   1      35.003  12.813  18.854  0.00  0.00     0.002 A 
HETATM   16  C   UNK N   1      35.446  11.479  18.987  0.00  0.00     0.001 A 
HETATM   17  C   UNK N   1      36.005  10.798  17.888  0.00  0.00     0.018 A 
HETATM   18  C   UNK N   1      36.102  11.482  16.678  0.00  0.00     0.043 A 
HETATM   19  C   UNK N   1      36.617  11.068  15.378  0.00  0.00     0.212 A 
HETATM   20  O   UNK N   1      37.086   9.977  15.097  0.00  0.00    -0.285 OA
HETATM   21  H   UNK N   1      37.807  11.556  10.193  0.00  0.00     0.169 HD
HETATM   22  H   UNK N   1      35.622  14.178  14.923  0.00  0.00     0.166 HD
ENDROOT
TORSDOF 0
ENDMDL
MODEL 9
REMARK VINA RESULT:      -6.7      4.952      6.966
REMARK  0 active torsions:
REMARK  status: ('A' for Active; 'I' for Inactive)
ROOT
HETATM    1  O   UNK N   1      21.040  20.120   2.441  0.00  0.00    -0.267 OA
HETATM    2  C   UNK N   1      20.958  19.102   3.107  0.00  0.00     0.259 A 
HETATM    3  N   UNK N   1      19.809  18.400   3.239  0.00  0.00    -0.322 N 
HETATM    4  C   UNK N   1      20.093  17.296   4.072  0.00  0.00     0.046 A 
HETATM    5  C   UNK N   1      19.207  16.299   4.476  0.00  0.00     0.030 A 
HETATM    6  C   UNK N   1      19.700  15.278   5.312  0.00  0.00     0.002 A 
HETATM    7  C   UNK N   1      21.052  15.277   5.721  0.00  0.00     0.001 A 
HETATM    8  C   UNK N   1      21.921  16.294   5.297  0.00  0.00     0.015 A 
HETATM    9  C   UNK N   1      21.410  17.293   4.469  0.00  0.00     0.009 A 
HETATM   10  C   UNK N   1      22.049  18.461   3.867  0.00  0.00     0.075 A 
HETATM   11  C   UNK N   1      23.343  18.802   4.011  0.00  0.00     0.101 A 
HETATM   12  N   UNK N   1      24.247  18.038   4.791  0.00  0.00    -0.351 N 
HETATM   13  C   UNK N   1      25.501  18.671   4.704  0.00  0.00     0.047 A 
HETATM   14  C   UNK N   1      26.678  18.252   5.312  0.00  0.00     0.030 A 
HETATM   15  C   UNK N   1      27.836  19.016   5.100  0.00  0.00     0.002 A 
HETATM   16  C   UNK N   1      27.792  20.174   4.292  0.00  0.00     0.001 A 
HETATM   17  C   UNK N   1      26.585  20.577   3.687  0.00  0.00     0.018 A 
HETATM   18  C   UNK N   1      25.451  19.801   3.913  0.00  0.00     0.043 A 
HETATM   19  C   UNK N   1      24.079  19.942   3.439  0.00  0.00     0.212 A 
HETATM   20  O   UNK N   1      23.649  20.822   2.711  0.00  0.00    -0.285 OA
HETATM   21  H   UNK N   1      18.939  18.618   2.832  0.00  0.00     0.169 HD
HETATM   22  H   UNK N   1      24.038  17.221   5.298  0.00  0.00     0.166 HD
ENDROOT
TORSDOF 0
ENDMDL
