MODEL 1
REMARK VINA RESULT:      -7.1      0.000      0.000
REMARK  6 active torsions:
REMARK  status: ('A' for Active; 'I' for Inactive)
REMARK    1  A    between atoms: C_2  and  C_3 
REMARK    2  A    between atoms: C_2  and  N_19 
REMARK       I    between atoms: C_3  and  N_5 
REMARK    3  A    between atoms: C_6  and  N_5 
REMARK       I    between atoms: N_19  and  C_20 
REMARK    4  A    between atoms: C_20  and  C_22 
REMARK    5  A    between atoms: C_22  and  C_23 
REMARK    6  A    between atoms: C_22  and  O_26 
ROOT
HETATM    1  C   UNK N   1      28.266  17.258   8.769  0.00  0.00     0.241 C 
HETATM    2  O   UNK N   1      27.638  16.991   9.781  0.00  0.00    -0.271 OA
HETATM    3  N   UNK N   1      27.670  17.093   7.564  0.00  0.00    -0.342 N 
HETATM    4  H   UNK N   1      26.730  16.804   7.532  0.00  0.00     0.163 HD
ENDROOT
BRANCH   3   5
HETATM    5  C   UNK N   1      28.372  17.328   6.324  0.00  0.00     0.211 C 
HETATM    6  C   UNK N   1      27.733  18.472   5.558  0.00  0.00    -0.020 A 
HETATM    7  C   UNK N   1      27.681  19.707   6.223  0.00  0.00     0.010 A 
HETATM    8  C   UNK N   1      27.156  18.373   4.265  0.00  0.00    -0.048 A 
HETATM    9  C   UNK N   1      27.082  20.820   5.637  0.00  0.00     0.001 A 
HETATM   10  C   UNK N   1      26.515  20.714   4.371  0.00  0.00     0.001 A 
HETATM   11  C   UNK N   1      26.551  19.498   3.691  0.00  0.00     0.008 A 
HETATM   12  C   UNK N   1      27.144  17.116   3.466  0.00  0.00     0.059 C 
HETATM   13  C   UNK N   1      26.749  15.928   4.314  0.00  0.00     0.130 C 
HETATM   14  N   UNK N   1      27.963  15.340   4.812  0.00  0.00    -0.354 N 
HETATM   15  C   UNK N   1      28.765  16.008   5.691  0.00  0.00     0.246 C 
HETATM   16  C   UNK N   1      28.349  14.048   4.301  0.00  0.00     0.152 C 
HETATM   17  O   UNK N   1      29.827  15.507   6.039  0.00  0.00    -0.271 OA
ENDBRANCH   3   5
BRANCH   1  18
HETATM   18  C   UNK N   1      29.692  17.756   8.873  0.00  0.00     0.172 C 
HETATM   19  C   UNK N   1      29.843  18.882   9.886  0.00  0.00     0.042 C 
BRANCH  18  20
HETATM   20  N   UNK N   1      30.613  16.663   9.111  0.00  0.00    -0.346 N 
HETATM   21  C   UNK N   1      31.839  16.556   8.539  0.00  0.00     0.247 C 
HETATM   22  O   UNK N   1      32.199  17.346   7.678  0.00  0.00    -0.271 OA
HETATM   23  H   UNK N   1      30.331  15.951   9.728  0.00  0.00     0.163 HD
BRANCH  21  24
HETATM   24  C   UNK N   1      32.801  15.544   9.089  0.00  0.00     0.213 C 
BRANCH  24  25
HETATM   25  C   UNK N   1      34.282  15.938   9.025  0.00  0.00     0.015 C 
HETATM   26  C   UNK N   1      34.839  16.297  10.387  0.00  0.00     0.012 C 
HETATM   27  C   UNK N   1      35.143  14.877   8.357  0.00  0.00     0.012 C 
ENDBRANCH  24  25
BRANCH  24  28
HETATM   28  O   UNK N   1      32.446  15.248  10.405  0.00  0.00    -0.386 OA
HETATM   29  H   UNK N   1      31.705  15.518  10.970  0.00  0.00     0.210 HD
ENDBRANCH  24  28
ENDBRANCH  21  24
ENDBRANCH  18  20
ENDBRANCH   1  18
TORSDOF 6
ENDMDL
MODEL 2
REMARK VINA RESULT:      -7.0      2.601      4.816
REMARK  6 active torsions:
REMARK  status: ('A' for Active; 'I' for Inactive)
REMARK    1  A    between atoms: C_2  and  C_3 
REMARK    2  A    between atoms: C_2  and  N_19 
REMARK       I    between atoms: C_3  and  N_5 
REMARK    3  A    between atoms: C_6  and  N_5 
REMARK       I    between atoms: N_19  and  C_20 
REMARK    4  A    between atoms: C_20  and  C_22 
REMARK    5  A    between atoms: C_22  and  C_23 
REMARK    6  A    between atoms: C_22  and  O_26 
ROOT
HETATM    1  C   UNK N   1      33.767  17.744   7.741  0.00  0.00     0.241 C 
HETATM    2  O   UNK N   1      34.512  18.703   7.868  0.00  0.00    -0.271 OA
HETATM    3  N   UNK N   1      32.525  17.940   7.236  0.00  0.00    -0.342 N 
HETATM    4  H   UNK N   1      32.266  18.843   6.942  0.00  0.00     0.163 HD
ENDROOT
BRANCH   3   5
HETATM    5  C   UNK N   1      31.568  16.865   7.117  0.00  0.00     0.211 C 
HETATM    6  C   UNK N   1      31.113  16.713   5.677  0.00  0.00    -0.020 A 
HETATM    7  C   UNK N   1      32.122  16.451   4.736  0.00  0.00     0.010 A 
HETATM    8  C   UNK N   1      29.779  16.860   5.218  0.00  0.00    -0.048 A 
HETATM    9  C   UNK N   1      31.832  16.332   3.378  0.00  0.00     0.001 A 
HETATM   10  C   UNK N   1      30.521  16.481   2.935  0.00  0.00     0.001 A 
HETATM   11  C   UNK N   1      29.502  16.744   3.850  0.00  0.00     0.008 A 
HETATM   12  C   UNK N   1      28.628  17.145   6.119  0.00  0.00     0.059 C 
HETATM   13  C   UNK N   1      28.966  18.228   7.117  0.00  0.00     0.130 C 
HETATM   14  N   UNK N   1      29.449  17.577   8.304  0.00  0.00    -0.354 N 
HETATM   15  C   UNK N   1      30.621  16.878   8.301  0.00  0.00     0.246 C 
HETATM   16  C   UNK N   1      28.623  17.622   9.485  0.00  0.00     0.152 C 
HETATM   17  O   UNK N   1      30.967  16.276   9.310  0.00  0.00    -0.271 OA
ENDBRANCH   3   5
BRANCH   1  18
HETATM   18  C   UNK N   1      34.232  16.363   8.154  0.00  0.00     0.172 C 
HETATM   19  C   UNK N   1      34.940  15.627   7.026  0.00  0.00     0.042 C 
BRANCH  18  20
HETATM   20  N   UNK N   1      35.021  16.418   9.368  0.00  0.00    -0.346 N 
HETATM   21  C   UNK N   1      34.770  15.679  10.478  0.00  0.00     0.247 C 
HETATM   22  O   UNK N   1      33.766  14.985  10.555  0.00  0.00    -0.271 OA
HETATM   23  H   UNK N   1      35.789  17.032   9.390  0.00  0.00     0.163 HD
BRANCH  21  24
HETATM   24  C   UNK N   1      35.822  15.610  11.547  0.00  0.00     0.213 C 
BRANCH  24  25
HETATM   25  C   UNK N   1      35.978  14.247  12.232  0.00  0.00     0.015 C 
HETATM   26  C   UNK N   1      36.971  13.355  11.518  0.00  0.00     0.012 C 
HETATM   27  C   UNK N   1      36.333  14.370  13.706  0.00  0.00     0.012 C 
ENDBRANCH  24  25
BRANCH  24  28
HETATM   28  O   UNK N   1      37.045  16.010  11.007  0.00  0.00    -0.386 OA
HETATM   29  H   UNK N   1      37.948  15.665  11.079  0.00  0.00     0.210 HD
ENDBRANCH  24  28
ENDBRANCH  21  24
ENDBRANCH  18  20
ENDBRANCH   1  18
TORSDOF 6
ENDMDL
MODEL 3
REMARK VINA RESULT:      -6.5      1.118      1.298
REMARK  6 active torsions:
REMARK  status: ('A' for Active; 'I' for Inactive)
REMARK    1  A    between atoms: C_2  and  C_3 
REMARK    2  A    between atoms: C_2  and  N_19 
REMARK       I    between atoms: C_3  and  N_5 
REMARK    3  A    between atoms: C_6  and  N_5 
REMARK       I    between atoms: N_19  and  C_20 
REMARK    4  A    between atoms: C_20  and  C_22 
REMARK    5  A    between atoms: C_22  and  C_23 
REMARK    6  A    between atoms: C_22  and  O_26 
ROOT
HETATM    1  C   UNK N   1      28.189  17.451   8.345  0.00  0.00     0.241 C 
HETATM    2  O   UNK N   1      27.725  17.381   9.472  0.00  0.00    -0.271 OA
HETATM    3  N   UNK N   1      27.383  17.195   7.286  0.00  0.00    -0.342 N 
HETATM    4  H   UNK N   1      26.431  17.003   7.446  0.00  0.00     0.163 HD
ENDROOT
BRANCH   3   5
HETATM    5  C   UNK N   1      27.877  17.196   5.929  0.00  0.00     0.211 C 
HETATM    6  C   UNK N   1      27.196  18.280   5.114  0.00  0.00    -0.020 A 
HETATM    7  C   UNK N   1      27.342  19.593   5.589  0.00  0.00     0.010 A 
HETATM    8  C   UNK N   1      26.401  18.061   3.959  0.00  0.00    -0.048 A 
HETATM    9  C   UNK N   1      26.729  20.667   4.948  0.00  0.00     0.001 A 
HETATM   10  C   UNK N   1      25.948  20.444   3.818  0.00  0.00     0.001 A 
HETATM   11  C   UNK N   1      25.786  19.149   3.328  0.00  0.00     0.008 A 
HETATM   12  C   UNK N   1      26.168  16.715   3.367  0.00  0.00     0.059 C 
HETATM   13  C   UNK N   1      25.845  15.693   4.433  0.00  0.00     0.130 C 
HETATM   14  N   UNK N   1      27.082  15.068   4.812  0.00  0.00    -0.354 N 
HETATM   15  C   UNK N   1      28.066  15.772   5.444  0.00  0.00     0.246 C 
HETATM   16  C   UNK N   1      27.287  13.690   4.443  0.00  0.00     0.152 C 
HETATM   17  O   UNK N   1      29.136  15.227   5.688  0.00  0.00    -0.271 OA
ENDBRANCH   3   5
BRANCH   1  18
HETATM   18  C   UNK N   1      29.647  17.808   8.147  0.00  0.00     0.172 C 
HETATM   19  C   UNK N   1      30.153  18.788   9.196  0.00  0.00     0.042 C 
BRANCH  18  20
HETATM   20  N   UNK N   1      30.469  16.619   8.050  0.00  0.00    -0.346 N 
HETATM   21  C   UNK N   1      31.629  16.546   7.349  0.00  0.00     0.247 C 
HETATM   22  O   UNK N   1      31.998  17.478   6.649  0.00  0.00    -0.271 OA
HETATM   23  H   UNK N   1      30.167  15.811   8.522  0.00  0.00     0.163 HD
BRANCH  21  24
HETATM   24  C   UNK N   1      32.526  15.362   7.569  0.00  0.00     0.213 C 
BRANCH  24  25
HETATM   25  C   UNK N   1      33.107  15.228   8.981  0.00  0.00     0.015 C 
HETATM   26  C   UNK N   1      33.707  13.859   9.228  0.00  0.00     0.012 C 
HETATM   27  C   UNK N   1      34.115  16.320   9.307  0.00  0.00     0.012 C 
ENDBRANCH  24  25
BRANCH  24  28
HETATM   28  O   UNK N   1      31.835  14.199   7.228  0.00  0.00    -0.386 OA
HETATM   29  H   UNK N   1      30.953  13.862   7.450  0.00  0.00     0.210 HD
ENDBRANCH  24  28
ENDBRANCH  21  24
ENDBRANCH  18  20
ENDBRANCH   1  18
TORSDOF 6
ENDMDL
MODEL 4
REMARK VINA RESULT:      -6.4      2.198      4.075
REMARK  6 active torsions:
REMARK  status: ('A' for Active; 'I' for Inactive)
REMARK    1  A    between atoms: C_2  and  C_3 
REMARK    2  A    between atoms: C_2  and  N_19 
REMARK       I    between atoms: C_3  and  N_5 
REMARK    3  A    between atoms: C_6  and  N_5 
REMARK       I    between atoms: N_19  and  C_20 
REMARK    4  A    between atoms: C_20  and  C_22 
REMARK    5  A    between atoms: C_22  and  C_23 
REMARK    6  A    between atoms: C_22  and  O_26 
ROOT
HETATM    1  C   UNK N   1      31.141  17.525   4.577  0.00  0.00     0.241 C 
HETATM    2  O   UNK N   1      32.135  17.933   3.997  0.00  0.00    -0.271 OA
HETATM    3  N   UNK N   1      29.918  17.821   4.073  0.00  0.00    -0.342 N 
HETATM    4  H   UNK N   1      29.859  18.320   3.227  0.00  0.00     0.163 HD
ENDROOT
BRANCH   3   5
HETATM    5  C   UNK N   1      28.700  17.426   4.739  0.00  0.00     0.211 C 
HETATM    6  C   UNK N   1      27.820  16.614   3.805  0.00  0.00    -0.020 A 
HETATM    7  C   UNK N   1      28.388  15.439   3.289  0.00  0.00     0.010 A 
HETATM    8  C   UNK N   1      26.513  16.976   3.388  0.00  0.00    -0.048 A 
HETATM    9  C   UNK N   1      27.692  14.633   2.389  0.00  0.00     0.001 A 
HETATM   10  C   UNK N   1      26.411  14.997   1.983  0.00  0.00     0.001 A 
HETATM   11  C   UNK N   1      25.827  16.161   2.479  0.00  0.00     0.008 A 
HETATM   12  C   UNK N   1      25.810  18.201   3.861  0.00  0.00     0.059 C 
HETATM   13  C   UNK N   1      26.725  19.405   3.836  0.00  0.00     0.130 C 
HETATM   14  N   UNK N   1      27.323  19.512   5.139  0.00  0.00    -0.354 N 
HETATM   15  C   UNK N   1      28.187  18.562   5.602  0.00  0.00     0.246 C 
HETATM   16  C   UNK N   1      26.929  20.617   5.976  0.00  0.00     0.152 C 
HETATM   17  O   UNK N   1      28.622  18.647   6.744  0.00  0.00    -0.271 OA
ENDBRANCH   3   5
BRANCH   1  18
HETATM   18  C   UNK N   1      31.285  16.709   5.844  0.00  0.00     0.172 C 
HETATM   19  C   UNK N   1      31.258  15.210   5.578  0.00  0.00     0.042 C 
BRANCH  18  20
HETATM   20  N   UNK N   1      32.450  17.121   6.603  0.00  0.00    -0.346 N 
HETATM   21  C   UNK N   1      32.402  17.654   7.850  0.00  0.00     0.247 C 
HETATM   22  O   UNK N   1      31.331  17.925   8.374  0.00  0.00    -0.271 OA
HETATM   23  H   UNK N   1      33.333  17.008   6.186  0.00  0.00     0.163 HD
BRANCH  21  24
HETATM   24  C   UNK N   1      33.678  17.761   8.634  0.00  0.00     0.213 C 
BRANCH  24  25
HETATM   25  C   UNK N   1      34.308  16.429   9.055  0.00  0.00     0.015 C 
HETATM   26  C   UNK N   1      35.296  16.594  10.190  0.00  0.00     0.012 C 
HETATM   27  C   UNK N   1      33.268  15.372   9.400  0.00  0.00     0.012 C 
ENDBRANCH  24  25
BRANCH  24  28
HETATM   28  O   UNK N   1      34.599  18.510   7.900  0.00  0.00    -0.386 OA
HETATM   29  H   UNK N   1      35.214  19.222   8.136  0.00  0.00     0.210 HD
ENDBRANCH  24  28
ENDBRANCH  21  24
ENDBRANCH  18  20
ENDBRANCH   1  18
TORSDOF 6
ENDMDL
MODEL 5
REMARK VINA RESULT:      -6.3     12.067     14.495
REMARK  6 active torsions:
REMARK  status: ('A' for Active; 'I' for Inactive)
REMARK    1  A    between atoms: C_2  and  C_3 
REMARK    2  A    between atoms: C_2  and  N_19 
REMARK       I    between atoms: C_3  and  N_5 
REMARK    3  A    between atoms: C_6  and  N_5 
REMARK       I    between atoms: N_19  and  C_20 
REMARK    4  A    between atoms: C_20  and  C_22 
REMARK    5  A    between atoms: C_22  and  C_23 
REMARK    6  A    between atoms: C_22  and  O_26 
ROOT
HETATM    1  C   UNK N   1      29.889  24.339  -6.493  0.00  0.00     0.241 C 
HETATM    2  O   UNK N   1      30.489  24.237  -7.551  0.00  0.00    -0.271 OA
HETATM    3  N   UNK N   1      29.617  25.574  -6.007  0.00  0.00    -0.342 N 
HETATM    4  H   UNK N   1      29.870  26.362  -6.540  0.00  0.00     0.163 HD
ENDROOT
BRANCH   3   5
HETATM    5  C   UNK N   1      28.968  25.770  -4.732  0.00  0.00     0.211 C 
HETATM    6  C   UNK N   1      27.567  26.322  -4.925  0.00  0.00    -0.020 A 
HETATM    7  C   UNK N   1      26.696  25.536  -5.696  0.00  0.00     0.010 A 
HETATM    8  C   UNK N   1      27.102  27.569  -4.434  0.00  0.00    -0.048 A 
HETATM    9  C   UNK N   1      25.398  25.958  -5.976  0.00  0.00     0.001 A 
HETATM   10  C   UNK N   1      24.949  27.184  -5.494  0.00  0.00     0.001 A 
HETATM   11  C   UNK N   1      25.797  27.983  -4.728  0.00  0.00     0.008 A 
HETATM   12  C   UNK N   1      27.935  28.490  -3.613  0.00  0.00     0.059 C 
HETATM   13  C   UNK N   1      29.326  28.635  -4.188  0.00  0.00     0.130 C 
HETATM   14  N   UNK N   1      30.158  27.659  -3.539  0.00  0.00    -0.354 N 
HETATM   15  C   UNK N   1      29.958  26.322  -3.725  0.00  0.00     0.246 C 
HETATM   16  C   UNK N   1      31.169  28.131  -2.625  0.00  0.00     0.152 C 
HETATM   17  O   UNK N   1      30.639  25.517  -3.100  0.00  0.00    -0.271 OA
ENDBRANCH   3   5
BRANCH   1  18
HETATM   18  C   UNK N   1      29.469  23.094  -5.738  0.00  0.00     0.172 C 
HETATM   19  C   UNK N   1      28.646  22.144  -6.597  0.00  0.00     0.042 C 
BRANCH  18  20
HETATM   20  N   UNK N   1      30.609  22.446  -5.122  0.00  0.00    -0.346 N 
HETATM   21  C   UNK N   1      30.647  22.031  -3.830  0.00  0.00     0.247 C 
HETATM   22  O   UNK N   1      29.732  22.290  -3.062  0.00  0.00    -0.271 OA
HETATM   23  H   UNK N   1      31.408  22.297  -5.675  0.00  0.00     0.163 HD
BRANCH  21  24
HETATM   24  C   UNK N   1      31.760  21.119  -3.402  0.00  0.00     0.213 C 
BRANCH  24  25
HETATM   25  C   UNK N   1      32.938  21.013  -4.379  0.00  0.00     0.015 C 
HETATM   26  C   UNK N   1      34.268  20.895  -3.664  0.00  0.00     0.012 C 
HETATM   27  C   UNK N   1      32.768  19.881  -5.381  0.00  0.00     0.012 C 
ENDBRANCH  24  25
BRANCH  24  28
HETATM   28  O   UNK N   1      32.220  21.521  -2.148  0.00  0.00    -0.386 OA
HETATM   29  H   UNK N   1      32.101  22.329  -1.625  0.00  0.00     0.210 HD
ENDBRANCH  24  28
ENDBRANCH  21  24
ENDBRANCH  18  20
ENDBRANCH   1  18
TORSDOF 6
ENDMDL
MODEL 6
REMARK VINA RESULT:      -6.3     13.808     15.924
REMARK  6 active torsions:
REMARK  status: ('A' for Active; 'I' for Inactive)
REMARK    1  A    between atoms: C_2  and  C_3 
REMARK    2  A    between atoms: C_2  and  N_19 
REMARK       I    between atoms: C_3  and  N_5 
REMARK    3  A    between atoms: C_6  and  N_5 
REMARK       I    between atoms: N_19  and  C_20 
REMARK    4  A    between atoms: C_20  and  C_22 
REMARK    5  A    between atoms: C_22  and  C_23 
REMARK    6  A    between atoms: C_22  and  O_26 
ROOT
HETATM    1  C   UNK N   1      29.450  25.300  -5.877  0.00  0.00     0.241 C 
HETATM    2  O   UNK N   1      30.260  26.176  -6.133  0.00  0.00    -0.271 OA
HETATM    3  N   UNK N   1      29.097  24.426  -6.851  0.00  0.00    -0.342 N 
HETATM    4  H   UNK N   1      29.535  24.489  -7.730  0.00  0.00     0.163 HD
ENDROOT
BRANCH   3   5
HETATM    5  C   UNK N   1      28.098  23.405  -6.639  0.00  0.00     0.211 C 
HETATM    6  C   UNK N   1      28.698  22.024  -6.830  0.00  0.00    -0.020 A 
HETATM    7  C   UNK N   1      29.778  21.700  -5.994  0.00  0.00     0.010 A 
HETATM    8  C   UNK N   1      28.285  21.077  -7.802  0.00  0.00    -0.048 A 
HETATM    9  C   UNK N   1      30.438  20.477  -6.104  0.00  0.00     0.001 A 
HETATM   10  C   UNK N   1      30.029  19.555  -7.063  0.00  0.00     0.001 A 
HETATM   11  C   UNK N   1      28.960  19.854  -7.906  0.00  0.00     0.008 A 
HETATM   12  C   UNK N   1      27.158  21.310  -8.748  0.00  0.00     0.059 C 
HETATM   13  C   UNK N   1      27.224  22.694  -9.352  0.00  0.00     0.130 C 
HETATM   14  N   UNK N   1      26.421  23.556  -8.529  0.00  0.00    -0.354 N 
HETATM   15  C   UNK N   1      26.776  23.838  -7.242  0.00  0.00     0.246 C 
HETATM   16  C   UNK N   1      25.187  24.061  -9.078  0.00  0.00     0.152 C 
HETATM   17  O   UNK N   1      26.032  24.518  -6.546  0.00  0.00    -0.271 OA
ENDBRANCH   3   5
BRANCH   1  18
HETATM   18  C   UNK N   1      28.846  25.208  -4.491  0.00  0.00     0.172 C 
HETATM   19  C   UNK N   1      29.861  24.772  -3.444  0.00  0.00     0.042 C 
BRANCH  18  20
HETATM   20  N   UNK N   1      28.166  26.437  -4.134  0.00  0.00    -0.346 N 
HETATM   21  C   UNK N   1      26.961  26.491  -3.512  0.00  0.00     0.247 C 
HETATM   22  O   UNK N   1      26.312  25.474  -3.312  0.00  0.00    -0.271 OA
HETATM   23  H   UNK N   1      28.606  27.287  -4.356  0.00  0.00     0.163 HD
BRANCH  21  24
HETATM   24  C   UNK N   1      26.509  27.803  -2.938  0.00  0.00     0.213 C 
BRANCH  24  25
HETATM   25  C   UNK N   1      27.405  29.006  -3.255  0.00  0.00     0.015 C 
HETATM   26  C   UNK N   1      26.681  30.064  -4.061  0.00  0.00     0.012 C 
HETATM   27  C   UNK N   1      28.030  29.616  -2.010  0.00  0.00     0.012 C 
ENDBRANCH  24  25
BRANCH  24  28
HETATM   28  O   UNK N   1      25.205  28.059  -3.361  0.00  0.00    -0.386 OA
HETATM   29  H   UNK N   1      24.336  27.928  -2.951  0.00  0.00     0.210 HD
ENDBRANCH  24  28
ENDBRANCH  21  24
ENDBRANCH  18  20
ENDBRANCH   1  18
TORSDOF 6
ENDMDL
MODEL 7
REMARK VINA RESULT:      -6.2      8.981     11.458
REMARK  6 active torsions:
REMARK  status: ('A' for Active; 'I' for Inactive)
REMARK    1  A    between atoms: C_2  and  C_3 
REMARK    2  A    between atoms: C_2  and  N_19 
REMARK       I    between atoms: C_3  and  N_5 
REMARK    3  A    between atoms: C_6  and  N_5 
REMARK       I    between atoms: N_19  and  C_20 
REMARK    4  A    between atoms: C_20  and  C_22 
REMARK    5  A    between atoms: C_22  and  C_23 
REMARK    6  A    between atoms: C_22  and  O_26 
ROOT
HETATM    1  C   UNK N   1      19.393  13.964   4.378  0.00  0.00     0.241 C 
HETATM    2  O   UNK N   1      18.356  13.491   3.941  0.00  0.00    -0.271 OA
HETATM    3  N   UNK N   1      19.648  13.871   5.706  0.00  0.00    -0.342 N 
HETATM    4  H   UNK N   1      19.014  13.385   6.281  0.00  0.00     0.163 HD
ENDROOT
BRANCH   3   5
HETATM    5  C   UNK N   1      20.822  14.463   6.303  0.00  0.00     0.211 C 
HETATM    6  C   UNK N   1      21.667  13.401   6.985  0.00  0.00    -0.020 A 
HETATM    7  C   UNK N   1      22.124  12.357   6.166  0.00  0.00     0.010 A 
HETATM    8  C   UNK N   1      21.980  13.365   8.368  0.00  0.00    -0.048 A 
HETATM    9  C   UNK N   1      22.873  11.304   6.686  0.00  0.00     0.001 A 
HETATM   10  C   UNK N   1      23.174  11.273   8.044  0.00  0.00     0.001 A 
HETATM   11  C   UNK N   1      22.729  12.298   8.879  0.00  0.00     0.008 A 
HETATM   12  C   UNK N   1      21.546  14.411   9.335  0.00  0.00     0.059 C 
HETATM   13  C   UNK N   1      20.094  14.780   9.132  0.00  0.00     0.130 C 
HETATM   14  N   UNK N   1      20.063  15.907   8.239  0.00  0.00    -0.354 N 
HETATM   15  C   UNK N   1      20.467  15.792   6.940  0.00  0.00     0.246 C 
HETATM   16  C   UNK N   1      19.660  17.183   8.773  0.00  0.00     0.152 C 
HETATM   17  O   UNK N   1      20.496  16.787   6.227  0.00  0.00    -0.271 OA
ENDBRANCH   3   5
BRANCH   1  18
HETATM   18  C   UNK N   1      20.366  14.651   3.443  0.00  0.00     0.172 C 
HETATM   19  C   UNK N   1      20.736  13.783   2.249  0.00  0.00     0.042 C 
BRANCH  18  20
HETATM   20  N   UNK N   1      19.883  15.961   3.055  0.00  0.00    -0.346 N 
HETATM   21  C   UNK N   1      20.681  17.033   2.821  0.00  0.00     0.247 C 
HETATM   22  O   UNK N   1      21.882  16.979   3.041  0.00  0.00    -0.271 OA
HETATM   23  H   UNK N   1      18.912  16.081   2.953  0.00  0.00     0.163 HD
BRANCH  21  24
HETATM   24  C   UNK N   1      20.088  18.235   2.146  0.00  0.00     0.213 C 
BRANCH  24  25
HETATM   25  C   UNK N   1      20.888  19.535   2.290  0.00  0.00     0.015 C 
HETATM   26  C   UNK N   1      20.897  20.349   1.013  0.00  0.00     0.012 C 
HETATM   27  C   UNK N   1      20.419  20.385   3.462  0.00  0.00     0.012 C 
ENDBRANCH  24  25
BRANCH  24  28
HETATM   28  O   UNK N   1      19.893  17.947   0.795  0.00  0.00    -0.386 OA
HETATM   29  H   UNK N   1      19.109  17.718   0.271  0.00  0.00     0.210 HD
ENDBRANCH  24  28
ENDBRANCH  21  24
ENDBRANCH  18  20
ENDBRANCH   1  18
TORSDOF 6
ENDMDL
MODEL 8
REMARK VINA RESULT:      -6.1      5.459     10.219
REMARK  6 active torsions:
REMARK  status: ('A' for Active; 'I' for Inactive)
REMARK    1  A    between atoms: C_2  and  C_3 
REMARK    2  A    between atoms: C_2  and  N_19 
REMARK       I    between atoms: C_3  and  N_5 
REMARK    3  A    between atoms: C_6  and  N_5 
REMARK       I    between atoms: N_19  and  C_20 
REMARK    4  A    between atoms: C_20  and  C_22 
REMARK    5  A    between atoms: C_22  and  C_23 
REMARK    6  A    between atoms: C_22  and  O_26 
ROOT
HETATM    1  C   UNK N   1      36.736  13.864  10.701  0.00  0.00     0.241 C 
HETATM    2  O   UNK N   1      37.839  14.112  10.239  0.00  0.00    -0.271 OA
HETATM    3  N   UNK N   1      36.570  12.736  11.434  0.00  0.00    -0.342 N 
HETATM    4  H   UNK N   1      37.351  12.166  11.615  0.00  0.00     0.163 HD
ENDROOT
BRANCH   3   5
HETATM    5  C   UNK N   1      35.282  12.347  11.958  0.00  0.00     0.211 C 
HETATM    6  C   UNK N   1      35.327  12.260  13.473  0.00  0.00    -0.020 A 
HETATM    7  C   UNK N   1      35.689  13.436  14.148  0.00  0.00     0.010 A 
HETATM    8  C   UNK N   1      35.080  11.089  14.235  0.00  0.00    -0.048 A 
HETATM    9  C   UNK N   1      35.804  13.468  15.536  0.00  0.00     0.001 A 
HETATM   10  C   UNK N   1      35.564  12.315  16.277  0.00  0.00     0.001 A 
HETATM   11  C   UNK N   1      35.205  11.133  15.629  0.00  0.00     0.008 A 
HETATM   12  C   UNK N   1      34.697   9.782  13.632  0.00  0.00     0.059 C 
HETATM   13  C   UNK N   1      35.553   9.459  12.429  0.00  0.00     0.130 C 
HETATM   14  N   UNK N   1      34.858   9.948  11.269  0.00  0.00    -0.354 N 
HETATM   15  C   UNK N   1      34.661  11.285  11.073  0.00  0.00     0.246 C 
HETATM   16  C   UNK N   1      34.310   8.982  10.350  0.00  0.00     0.152 C 
HETATM   17  O   UNK N   1      34.002  11.662  10.111  0.00  0.00    -0.271 OA
ENDBRANCH   3   5
BRANCH   1  18
HETATM   18  C   UNK N   1      35.578  14.805  10.444  0.00  0.00     0.172 C 
HETATM   19  C   UNK N   1      35.696  16.101  11.233  0.00  0.00     0.042 C 
BRANCH  18  20
HETATM   20  N   UNK N   1      35.391  15.030   9.025  0.00  0.00    -0.346 N 
HETATM   21  C   UNK N   1      34.182  15.167   8.424  0.00  0.00     0.247 C 
HETATM   22  O   UNK N   1      33.147  14.993   9.052  0.00  0.00    -0.271 OA
HETATM   23  H   UNK N   1      36.193  15.086   8.459  0.00  0.00     0.163 HD
BRANCH  21  24
HETATM   24  C   UNK N   1      34.135  15.685   7.016  0.00  0.00     0.213 C 
BRANCH  24  25
HETATM   25  C   UNK N   1      33.472  17.056   6.839  0.00  0.00     0.015 C 
HETATM   26  C   UNK N   1      34.112  18.120   7.706  0.00  0.00     0.012 C 
HETATM   27  C   UNK N   1      33.431  17.504   5.386  0.00  0.00     0.012 C 
ENDBRANCH  24  25
BRANCH  24  28
HETATM   28  O   UNK N   1      35.431  15.716   6.500  0.00  0.00    -0.386 OA
HETATM   29  H   UNK N   1      36.279  16.030   6.852  0.00  0.00     0.210 HD
ENDBRANCH  24  28
ENDBRANCH  21  24
ENDBRANCH  18  20
ENDBRANCH   1  18
TORSDOF 6
ENDMDL
MODEL 9
REMARK VINA RESULT:      -6.0      3.212      7.185
REMARK  6 active torsions:
REMARK  status: ('A' for Active; 'I' for Inactive)
REMARK    1  A    between atoms: C_2  and  C_3 
REMARK    2  A    between atoms: C_2  and  N_19 
REMARK       I    between atoms: C_3  and  N_5 
REMARK    3  A    between atoms: C_6  and  N_5 
REMARK       I    between atoms: N_19  and  C_20 
REMARK    4  A    between atoms: C_20  and  C_22 
REMARK    5  A    between atoms: C_22  and  C_23 
REMARK    6  A    between atoms: C_22  and  O_26 
ROOT
HETATM    1  C   UNK N   1      27.504  18.816   4.091  0.00  0.00     0.241 C 
HETATM    2  O   UNK N   1      27.293  19.857   3.489  0.00  0.00    -0.271 OA
HETATM    3  N   UNK N   1      28.735  18.597   4.613  0.00  0.00    -0.342 N 
HETATM    4  H   UNK N   1      29.418  19.302   4.535  0.00  0.00     0.163 HD
ENDROOT
BRANCH   3   5
HETATM    5  C   UNK N   1      29.076  17.364   5.282  0.00  0.00     0.211 C 
HETATM    6  C   UNK N   1      29.380  17.617   6.747  0.00  0.00    -0.020 A 
HETATM    7  C   UNK N   1      28.350  18.203   7.499  0.00  0.00     0.010 A 
HETATM    8  C   UNK N   1      30.620  17.354   7.385  0.00  0.00    -0.048 A 
HETATM    9  C   UNK N   1      28.526  18.521   8.844  0.00  0.00     0.001 A 
HETATM   10  C   UNK N   1      29.746  18.263   9.462  0.00  0.00     0.001 A 
HETATM   11  C   UNK N   1      30.786  17.684   8.735  0.00  0.00     0.008 A 
HETATM   12  C   UNK N   1      31.787  16.742   6.690  0.00  0.00     0.059 C 
HETATM   13  C   UNK N   1      32.013  17.373   5.335  0.00  0.00     0.130 C 
HETATM   14  N   UNK N   1      31.302  16.577   4.371  0.00  0.00    -0.354 N 
HETATM   15  C   UNK N   1      29.939  16.505   4.380  0.00  0.00     0.246 C 
HETATM   16  C   UNK N   1      32.074  15.796   3.437  0.00  0.00     0.152 C 
HETATM   17  O   UNK N   1      29.370  15.761   3.590  0.00  0.00    -0.271 OA
ENDBRANCH   3   5
BRANCH   1  18
HETATM   18  C   UNK N   1      26.402  17.788   4.236  0.00  0.00     0.172 C 
HETATM   19  C   UNK N   1      25.027  18.426   4.382  0.00  0.00     0.042 C 
BRANCH  18  20
HETATM   20  N   UNK N   1      26.454  16.811   3.168  0.00  0.00    -0.346 N 
HETATM   21  C   UNK N   1      26.023  15.529   3.282  0.00  0.00     0.247 C 
HETATM   22  O   UNK N   1      25.657  15.084   4.361  0.00  0.00    -0.271 OA
HETATM   23  H   UNK N   1      26.826  17.094   2.303  0.00  0.00     0.163 HD
BRANCH  21  24
HETATM   24  C   UNK N   1      25.859  14.713   2.032  0.00  0.00     0.213 C 
BRANCH  24  25
HETATM   25  C   UNK N   1      24.631  13.795   1.999  0.00  0.00     0.015 C 
HETATM   26  C   UNK N   1      23.435  14.460   1.352  0.00  0.00     0.012 C 
HETATM   27  C   UNK N   1      24.919  12.455   1.340  0.00  0.00     0.012 C 
ENDBRANCH  24  25
BRANCH  24  28
HETATM   28  O   UNK N   1      25.840  15.569   0.930  0.00  0.00    -0.386 OA
HETATM   29  H   UNK N   1      26.210  15.509   0.036  0.00  0.00     0.210 HD
ENDBRANCH  24  28
ENDBRANCH  21  24
ENDBRANCH  18  20
ENDBRANCH   1  18
TORSDOF 6
ENDMDL
