MODEL 1
REMARK VINA RESULT:      -8.9      0.000      0.000
REMARK  18 active torsions:
REMARK  status: ('A' for Active; 'I' for Inactive)
REMARK    1  A    between atoms: N_41  and  C_2 
REMARK    2  A    between atoms: C_20  and  C_19 
REMARK    3  A    between atoms: N_45  and  C_19 
REMARK    4  A    between atoms: N_46  and  C_20 
REMARK    5  A    between atoms: C_28  and  C_23 
REMARK    6  A    between atoms: N_48  and  C_23 
REMARK    7  A    between atoms: C_28  and  C_25 
REMARK    8  A    between atoms: C_28  and  C_26 
REMARK    9  A    between atoms: N_51  and  C_27 
REMARK   10  A    between atoms: N_56  and  C_29 
REMARK   11  A    between atoms: C_31  and  O_58 
REMARK   12  A    between atoms: C_32  and  O_59 
REMARK   13  A    between atoms: C_33  and  C_37 
REMARK   14  A    between atoms: N_48  and  C_34 
REMARK   15  A    between atoms: C_38  and  C_35 
REMARK       I    between atoms: N_45  and  C_38 
REMARK   16  A    between atoms: C_39  and  N_57 
REMARK   17  A    between atoms: N_51  and  C_40 
REMARK   18  A    between atoms: O_62  and  C_40 
ROOT
HETATM    1  C   UNK N   1      19.654  17.318   0.575  0.00  0.00     0.143 C 
HETATM    2  N   UNK N   1      18.973  16.233   0.734  0.00  0.00    -0.373 N 
ATOM      3  HN  UNK N   1      18.542  16.036   1.638  1.00  0.00     0.161 HD
HETATM    4  O   UNK N   1      20.275  17.554  -0.602  0.00  0.00    -0.348 OA
HETATM    5  H   UNK N   1      20.786  17.746  -1.364  0.00  0.00     0.219 HD
ENDROOT
BRANCH   1   6
HETATM    6  C   UNK N   1      19.698  18.372   1.672  0.00  0.00     0.229 C 
HETATM    7  C   UNK N   1      20.965  19.219   1.600  0.00  0.00     0.188 C 
HETATM    8  C   UNK N   1      20.912  19.861   2.945  0.00  0.00     0.199 C 
HETATM    9  C   UNK N   1      20.444  18.691   3.811  0.00  0.00     0.262 C 
HETATM   10  O   UNK N   1      19.657  17.835   2.977  0.00  0.00    -0.347 OA
BRANCH   7  11
HETATM   11  O   UNK N   1      20.919  20.152   0.559  0.00  0.00    -0.390 OA
HETATM   12  H   UNK N   1      20.217  20.786   0.343  0.00  0.00     0.210 HD
ENDBRANCH   7  11
BRANCH   8  13
HETATM   13  O   UNK N   1      22.120  20.442   3.339  0.00  0.00    -0.388 OA
HETATM   14  H   UNK N   1      22.287  21.350   3.634  0.00  0.00     0.210 HD
ENDBRANCH   8  13
BRANCH   9  15
HETATM   15  N   UNK N   1      21.485  17.913   4.502  0.00  0.00    -0.297 N 
HETATM   16  C   UNK N   1      22.251  18.299   5.560  0.00  0.00     0.188 A 
HETATM   17  N   UNK N   1      22.914  17.237   6.107  0.00  0.00    -0.346 N 
HETATM   18  C   UNK N   1      22.538  16.185   5.352  0.00  0.00     0.122 A 
ATOM     19  HN  UNK N   1      23.550  17.240   6.904  1.00  0.00     0.167 HD
HETATM   20  C   UNK N   1      22.794  14.818   5.482  0.00  0.00     0.134 A 
HETATM   21  C   UNK N   1      21.711  16.607   4.378  0.00  0.00     0.143 A 
HETATM   22  N   UNK N   1      22.293  13.993   4.529  0.00  0.00    -0.322 N 
HETATM   23  C   UNK N   1      21.502  14.462   3.521  0.00  0.00     0.177 A 
ATOM     24  HN  UNK N   1      22.514  12.998   4.567  1.00  0.00     0.169 HD
HETATM   25  N   UNK N   1      21.157  15.771   3.475  0.00  0.00    -0.322 N 
ATOM     26  HN  UNK N   1      20.498  16.117   2.777  1.00  0.00     0.169 HD
BRANCH  20  27
HETATM   27  N   UNK N   1      23.493  14.244   6.557  0.00  0.00    -0.373 N 
HETATM   28  H   UNK N   1      24.464  14.115   6.461  0.00  0.00     0.161 HD
BRANCH  27  29
HETATM   29  C   UNK N   1      22.880  13.840   7.777  0.00  0.00     0.135 C 
BRANCH  29  30
HETATM   30  C   UNK N   1      23.254  12.393   8.009  0.00  0.00     0.069 C 
BRANCH  30  31
HETATM   31  C   UNK N   1      22.531  11.471   7.041  0.00  0.00    -0.048 A 
HETATM   32  C   UNK N   1      23.247  10.408   6.457  0.00  0.00     0.008 A 
HETATM   33  C   UNK N   1      22.644   9.556   5.532  0.00  0.00     0.001 A 
HETATM   34  C   UNK N   1      21.309   9.755   5.180  0.00  0.00     0.000 A 
HETATM   35  C   UNK N   1      20.581  10.798   5.760  0.00  0.00     0.001 A 
HETATM   36  C   UNK N   1      21.188  11.655   6.689  0.00  0.00     0.008 A 
ENDBRANCH  30  31
BRANCH  30  37
HETATM   37  C   UNK N   1      23.177  12.147   9.478  0.00  0.00    -0.048 A 
HETATM   38  C   UNK N   1      21.959  12.198  10.172  0.00  0.00     0.008 A 
HETATM   39  C   UNK N   1      21.949  12.099  11.567  0.00  0.00     0.001 A 
HETATM   40  C   UNK N   1      23.152  11.980  12.270  0.00  0.00     0.000 A 
HETATM   41  C   UNK N   1      24.366  11.943  11.580  0.00  0.00     0.001 A 
HETATM   42  C   UNK N   1      24.377  12.028  10.187  0.00  0.00     0.008 A 
ENDBRANCH  30  37
ENDBRANCH  29  30
ENDBRANCH  27  29
ENDBRANCH  20  27
BRANCH  23  43
HETATM   43  C   UNK N   1      21.105  13.588   2.425  0.00  0.00     0.285 C 
HETATM   44  N   UNK N   1      21.650  13.724   1.197  0.00  0.00    -0.353 N 
HETATM   45  H   UNK N   1      21.356  13.122   0.476  0.00  0.00     0.162 HD
HETATM   46  O   UNK N   1      20.197  12.799   2.591  0.00  0.00    -0.264 OA
BRANCH  44  47
HETATM   47  C   UNK N   1      22.648  14.724   0.910  0.00  0.00     0.142 C 
BRANCH  47  48
HETATM   48  C   UNK N   1      24.006  14.083   0.836  0.00  0.00     0.143 C 
BRANCH  48  49
HETATM   49  N   UNK N   1      25.051  14.762   1.578  0.00  0.00    -0.355 N 
HETATM   50  C   UNK N   1      25.609  14.445   2.709  0.00  0.00     0.213 C 
ATOM     51  HN  UNK N   1      25.402  15.618   1.148  1.00  0.00     0.163 HD
BRANCH  50  52
HETATM   52  N   UNK N   1      26.559  15.322   3.277  0.00  0.00    -0.352 N 
HETATM   53  H   UNK N   1      27.511  15.226   3.044  0.00  0.00     0.163 HD
BRANCH  52  54
HETATM   54  C   UNK N   1      26.147  16.356   4.196  0.00  0.00     0.088 C 
HETATM   55  C   UNK N   1      26.317  15.837   5.636  0.00  0.00     0.045 C 
HETATM   56  C   UNK N   1      27.770  15.414   5.826  0.00  0.00     0.126 C 
HETATM   57  N   UNK N   1      28.541  16.613   5.653  0.00  0.00    -0.367 N 
HETATM   58  C   UNK N   1      28.502  17.266   4.359  0.00  0.00     0.126 C 
HETATM   59  C   UNK N   1      27.044  17.582   3.990  0.00  0.00     0.045 C 
BRANCH  57  60
HETATM   60  C   UNK N   1      28.903  17.341   6.812  0.00  0.00     0.102 A 
HETATM   61  C   UNK N   1      30.220  17.287   7.293  0.00  0.00     0.048 A 
HETATM   62  C   UNK N   1      30.540  17.911   8.493  0.00  0.00     0.005 A 
HETATM   63  C   UNK N   1      29.544  18.563   9.216  0.00  0.00     0.017 A 
HETATM   64  C   UNK N   1      28.242  18.600   8.710  0.00  0.00     0.089 A 
HETATM   65  N   UNK N   1      27.949  17.998   7.529  0.00  0.00    -0.352 N 
ATOM     66  HN  UNK N   1      26.995  18.037   7.170  1.00  0.00     0.166 HD
ENDBRANCH  57  60
ENDBRANCH  52  54
ENDBRANCH  50  52
BRANCH  50  67
HETATM   67  O   UNK N   1      25.242  13.361   3.418  0.00  0.00    -0.333 OA
HETATM   68  H   UNK N   1      24.447  12.938   3.679  0.00  0.00     0.220 HD
ENDBRANCH  50  67
ENDBRANCH  48  49
ENDBRANCH  47  48
ENDBRANCH  44  47
ENDBRANCH  23  43
ENDBRANCH   9  15
ENDBRANCH   1   6
BRANCH   2  69
HETATM   69  C   UNK N   1      18.817  15.289  -0.355  0.00  0.00     0.117 C 
HETATM   70  C   UNK N   1      18.052  14.053   0.065  0.00  0.00     0.026 C 
ENDBRANCH   2  69
TORSDOF 18
ENDMDL
MODEL 2
REMARK VINA RESULT:      -8.8      2.396      8.406
REMARK  18 active torsions:
REMARK  status: ('A' for Active; 'I' for Inactive)
REMARK    1  A    between atoms: N_41  and  C_2 
REMARK    2  A    between atoms: C_20  and  C_19 
REMARK    3  A    between atoms: N_45  and  C_19 
REMARK    4  A    between atoms: N_46  and  C_20 
REMARK    5  A    between atoms: C_28  and  C_23 
REMARK    6  A    between atoms: N_48  and  C_23 
REMARK    7  A    between atoms: C_28  and  C_25 
REMARK    8  A    between atoms: C_28  and  C_26 
REMARK    9  A    between atoms: N_51  and  C_27 
REMARK   10  A    between atoms: N_56  and  C_29 
REMARK   11  A    between atoms: C_31  and  O_58 
REMARK   12  A    between atoms: C_32  and  O_59 
REMARK   13  A    between atoms: C_33  and  C_37 
REMARK   14  A    between atoms: N_48  and  C_34 
REMARK   15  A    between atoms: C_38  and  C_35 
REMARK       I    between atoms: N_45  and  C_38 
REMARK   16  A    between atoms: C_39  and  N_57 
REMARK   17  A    between atoms: N_51  and  C_40 
REMARK   18  A    between atoms: O_62  and  C_40 
ROOT
HETATM    1  C   UNK N   1      20.631  14.467   8.180  0.00  0.00     0.143 C 
HETATM    2  N   UNK N   1      20.666  14.476   9.470  0.00  0.00    -0.373 N 
ATOM      3  HN  UNK N   1      20.715  15.366   9.967  1.00  0.00     0.161 HD
HETATM    4  O   UNK N   1      20.625  13.288   7.517  0.00  0.00    -0.348 OA
HETATM    5  H   UNK N   1      20.690  12.512   6.997  0.00  0.00     0.219 HD
ENDROOT
BRANCH   1   6
HETATM    6  C   UNK N   1      20.515  15.767   7.399  0.00  0.00     0.229 C 
HETATM    7  C   UNK N   1      20.141  15.527   5.939  0.00  0.00     0.188 C 
HETATM    8  C   UNK N   1      20.463  16.869   5.375  0.00  0.00     0.199 C 
HETATM    9  C   UNK N   1      21.760  17.195   6.116  0.00  0.00     0.262 C 
HETATM   10  O   UNK N   1      21.707  16.526   7.380  0.00  0.00    -0.347 OA
BRANCH   7  11
HETATM   11  O   UNK N   1      18.790  15.193   5.789  0.00  0.00    -0.390 OA
HETATM   12  H   UNK N   1      18.187  14.796   6.438  0.00  0.00     0.210 HD
ENDBRANCH   7  11
BRANCH   8  13
HETATM   13  O   UNK N   1      20.558  16.885   3.981  0.00  0.00    -0.388 OA
HETATM   14  H   UNK N   1      20.122  17.478   3.351  0.00  0.00     0.210 HD
ENDBRANCH   8  13
BRANCH   9  15
HETATM   15  N   UNK N   1      23.022  16.880   5.425  0.00  0.00    -0.297 N 
HETATM   16  C   UNK N   1      23.595  17.552   4.389  0.00  0.00     0.188 A 
HETATM   17  N   UNK N   1      24.881  17.142   4.182  0.00  0.00    -0.346 N 
HETATM   18  C   UNK N   1      25.083  16.193   5.119  0.00  0.00     0.122 A 
ATOM     19  HN  UNK N   1      25.539  17.476   3.478  1.00  0.00     0.167 HD
HETATM   20  C   UNK N   1      26.231  15.484   5.482  0.00  0.00     0.134 A 
HETATM   21  C   UNK N   1      23.955  16.024   5.834  0.00  0.00     0.143 A 
HETATM   22  N   UNK N   1      26.110  14.556   6.463  0.00  0.00    -0.322 N 
HETATM   23  C   UNK N   1      24.934  14.370   7.131  0.00  0.00     0.177 A 
ATOM     24  HN  UNK N   1      26.917  13.982   6.707  1.00  0.00     0.169 HD
HETATM   25  N   UNK N   1      23.861  15.150   6.857  0.00  0.00    -0.322 N 
ATOM     26  HN  UNK N   1      23.005  15.078   7.407  1.00  0.00     0.169 HD
BRANCH  20  27
HETATM   27  N   UNK N   1      27.503  15.705   4.930  0.00  0.00    -0.373 N 
HETATM   28  H   UNK N   1      27.607  15.608   3.956  0.00  0.00     0.161 HD
BRANCH  27  29
HETATM   29  C   UNK N   1      28.650  16.061   5.695  0.00  0.00     0.135 C 
BRANCH  29  30
HETATM   30  C   UNK N   1      29.277  17.265   5.030  0.00  0.00     0.069 C 
BRANCH  30  31
HETATM   31  C   UNK N   1      30.780  17.300   5.247  0.00  0.00    -0.048 A 
HETATM   32  C   UNK N   1      31.280  17.086   6.546  0.00  0.00     0.008 A 
HETATM   33  C   UNK N   1      32.648  17.147   6.810  0.00  0.00     0.001 A 
HETATM   34  C   UNK N   1      33.539  17.422   5.773  0.00  0.00     0.000 A 
HETATM   35  C   UNK N   1      33.059  17.625   4.475  0.00  0.00     0.001 A 
HETATM   36  C   UNK N   1      31.684  17.565   4.210  0.00  0.00     0.008 A 
ENDBRANCH  30  31
BRANCH  30  37
HETATM   37  C   UNK N   1      28.441  18.450   5.383  0.00  0.00    -0.048 A 
HETATM   38  C   UNK N   1      27.958  19.330   4.404  0.00  0.00     0.008 A 
HETATM   39  C   UNK N   1      27.298  20.502   4.787  0.00  0.00     0.001 A 
HETATM   40  C   UNK N   1      27.146  20.809   6.143  0.00  0.00     0.000 A 
HETATM   41  C   UNK N   1      27.639  19.939   7.118  0.00  0.00     0.001 A 
HETATM   42  C   UNK N   1      28.287  18.763   6.737  0.00  0.00     0.008 A 
ENDBRANCH  30  37
ENDBRANCH  29  30
ENDBRANCH  27  29
ENDBRANCH  20  27
BRANCH  23  43
HETATM   43  C   UNK N   1      24.783  13.265   8.070  0.00  0.00     0.285 C 
HETATM   44  N   UNK N   1      24.145  12.131   7.710  0.00  0.00    -0.353 N 
HETATM   45  H   UNK N   1      24.054  11.406   8.369  0.00  0.00     0.162 HD
HETATM   46  O   UNK N   1      25.142  13.408   9.220  0.00  0.00    -0.264 OA
BRANCH  44  47
HETATM   47  C   UNK N   1      23.592  11.951   6.390  0.00  0.00     0.142 C 
BRANCH  47  48
HETATM   48  C   UNK N   1      24.576  11.221   5.519  0.00  0.00     0.143 C 
BRANCH  48  49
HETATM   49  N   UNK N   1      24.411  11.427   4.093  0.00  0.00    -0.355 N 
HETATM   50  C   UNK N   1      25.094  12.173   3.275  0.00  0.00     0.213 C 
ATOM     51  HN  UNK N   1      23.643  10.908   3.666  1.00  0.00     0.163 HD
BRANCH  50  52
HETATM   52  N   UNK N   1      24.682  12.271   1.928  0.00  0.00    -0.352 N 
HETATM   53  H   UNK N   1      24.591  11.455   1.386  0.00  0.00     0.163 HD
BRANCH  52  54
HETATM   54  C   UNK N   1      24.393  13.557   1.340  0.00  0.00     0.088 C 
HETATM   55  C   UNK N   1      23.474  13.352   0.122  0.00  0.00     0.045 C 
HETATM   56  C   UNK N   1      22.223  12.613   0.584  0.00  0.00     0.126 C 
HETATM   57  N   UNK N   1      21.586  13.493   1.524  0.00  0.00    -0.367 N 
HETATM   58  C   UNK N   1      22.303  13.822   2.741  0.00  0.00     0.126 C 
HETATM   59  C   UNK N   1      23.671  14.422   2.380  0.00  0.00     0.045 C 
BRANCH  57  60
HETATM   60  C   UNK N   1      20.559  14.341   1.046  0.00  0.00     0.102 A 
HETATM   61  C   UNK N   1      19.380  13.790   0.518  0.00  0.00     0.048 A 
HETATM   62  C   UNK N   1      18.426  14.623  -0.053  0.00  0.00     0.005 A 
HETATM   63  C   UNK N   1      18.662  15.995  -0.116  0.00  0.00     0.017 A 
HETATM   64  C   UNK N   1      19.844  16.514   0.418  0.00  0.00     0.089 A 
HETATM   65  N   UNK N   1      20.759  15.687   0.986  0.00  0.00    -0.352 N 
ATOM     66  HN  UNK N   1      21.615  16.081   1.377  1.00  0.00     0.166 HD
ENDBRANCH  57  60
ENDBRANCH  52  54
ENDBRANCH  50  52
BRANCH  50  67
HETATM   67  O   UNK N   1      26.121  12.940   3.682  0.00  0.00    -0.333 OA
HETATM   68  H   UNK N   1      26.875  12.857   4.234  0.00  0.00     0.220 HD
ENDBRANCH  50  67
ENDBRANCH  48  49
ENDBRANCH  47  48
ENDBRANCH  44  47
ENDBRANCH  23  43
ENDBRANCH   9  15
ENDBRANCH   1   6
BRANCH   2  69
HETATM   69  C   UNK N   1      20.641  13.237  10.222  0.00  0.00     0.117 C 
HETATM   70  C   UNK N   1      22.029  12.764  10.592  0.00  0.00     0.026 C 
ENDBRANCH   2  69
TORSDOF 18
ENDMDL
MODEL 3
REMARK VINA RESULT:      -8.8      2.688      5.917
REMARK  18 active torsions:
REMARK  status: ('A' for Active; 'I' for Inactive)
REMARK    1  A    between atoms: N_41  and  C_2 
REMARK    2  A    between atoms: C_20  and  C_19 
REMARK    3  A    between atoms: N_45  and  C_19 
REMARK    4  A    between atoms: N_46  and  C_20 
REMARK    5  A    between atoms: C_28  and  C_23 
REMARK    6  A    between atoms: N_48  and  C_23 
REMARK    7  A    between atoms: C_28  and  C_25 
REMARK    8  A    between atoms: C_28  and  C_26 
REMARK    9  A    between atoms: N_51  and  C_27 
REMARK   10  A    between atoms: N_56  and  C_29 
REMARK   11  A    between atoms: C_31  and  O_58 
REMARK   12  A    between atoms: C_32  and  O_59 
REMARK   13  A    between atoms: C_33  and  C_37 
REMARK   14  A    between atoms: N_48  and  C_34 
REMARK   15  A    between atoms: C_38  and  C_35 
REMARK       I    between atoms: N_45  and  C_38 
REMARK   16  A    between atoms: C_39  and  N_57 
REMARK   17  A    between atoms: N_51  and  C_40 
REMARK   18  A    between atoms: O_62  and  C_40 
ROOT
HETATM    1  C   UNK N   1      19.956  17.664   0.946  0.00  0.00     0.143 C 
HETATM    2  N   UNK N   1      19.411  16.518   1.187  0.00  0.00    -0.373 N 
ATOM      3  HN  UNK N   1      19.195  16.255   2.149  1.00  0.00     0.161 HD
HETATM    4  O   UNK N   1      20.296  17.992  -0.320  0.00  0.00    -0.348 OA
HETATM    5  H   UNK N   1      20.620  18.252  -1.161  0.00  0.00     0.219 HD
ENDROOT
BRANCH   1   6
HETATM    6  C   UNK N   1      20.147  18.680   2.062  0.00  0.00     0.229 C 
HETATM    7  C   UNK N   1      20.981  19.875   1.611  0.00  0.00     0.188 C 
HETATM    8  C   UNK N   1      21.303  20.470   2.939  0.00  0.00     0.199 C 
HETATM    9  C   UNK N   1      21.578  19.213   3.765  0.00  0.00     0.262 C 
HETATM   10  O   UNK N   1      20.794  18.156   3.203  0.00  0.00    -0.347 OA
BRANCH   7  11
HETATM   11  O   UNK N   1      20.254  20.748   0.794  0.00  0.00    -0.390 OA
HETATM   12  H   UNK N   1      19.540  20.543   0.171  0.00  0.00     0.210 HD
ENDBRANCH   7  11
BRANCH   8  13
HETATM   13  O   UNK N   1      22.351  21.394   2.903  0.00  0.00    -0.388 OA
HETATM   14  H   UNK N   1      22.517  22.145   3.492  0.00  0.00     0.210 HD
ENDBRANCH   8  13
BRANCH   9  15
HETATM   15  N   UNK N   1      22.983  18.792   3.894  0.00  0.00    -0.297 N 
HETATM   16  C   UNK N   1      24.096  19.467   3.494  0.00  0.00     0.188 A 
HETATM   17  N   UNK N   1      25.229  18.907   4.013  0.00  0.00    -0.346 N 
HETATM   18  C   UNK N   1      24.782  17.863   4.740  0.00  0.00     0.122 A 
ATOM     19  HN  UNK N   1      26.194  19.209   3.878  1.00  0.00     0.167 HD
HETATM   20  C   UNK N   1      25.450  16.978   5.591  0.00  0.00     0.134 A 
HETATM   21  C   UNK N   1      23.443  17.787   4.635  0.00  0.00     0.143 A 
HETATM   22  N   UNK N   1      24.718  15.994   6.170  0.00  0.00    -0.322 N 
HETATM   23  C   UNK N   1      23.367  15.911   5.998  0.00  0.00     0.177 A 
ATOM     24  HN  UNK N   1      25.190  15.298   6.748  1.00  0.00     0.169 HD
HETATM   25  N   UNK N   1      22.711  16.848   5.272  0.00  0.00    -0.322 N 
ATOM     26  HN  UNK N   1      21.693  16.845   5.207  1.00  0.00     0.169 HD
BRANCH  20  27
HETATM   27  N   UNK N   1      26.812  17.072   5.917  0.00  0.00    -0.373 N 
HETATM   28  H   UNK N   1      27.434  17.380   5.218  0.00  0.00     0.161 HD
BRANCH  27  29
HETATM   29  C   UNK N   1      27.347  16.750   7.196  0.00  0.00     0.135 C 
BRANCH  29  30
HETATM   30  C   UNK N   1      28.264  17.883   7.597  0.00  0.00     0.069 C 
BRANCH  30  31
HETATM   31  C   UNK N   1      27.866  19.186   6.923  0.00  0.00    -0.048 A 
HETATM   32  C   UNK N   1      27.016  20.072   7.612  0.00  0.00     0.008 A 
HETATM   33  C   UNK N   1      26.587  21.262   7.025  0.00  0.00     0.001 A 
HETATM   34  C   UNK N   1      27.007  21.584   5.735  0.00  0.00     0.000 A 
HETATM   35  C   UNK N   1      27.862  20.721   5.041  0.00  0.00     0.001 A 
HETATM   36  C   UNK N   1      28.291  19.524   5.632  0.00  0.00     0.008 A 
ENDBRANCH  30  31
BRANCH  30  37
HETATM   37  C   UNK N   1      29.664  17.379   7.486  0.00  0.00    -0.048 A 
HETATM   38  C   UNK N   1      30.001  16.318   6.633  0.00  0.00     0.008 A 
HETATM   39  C   UNK N   1      31.294  15.786   6.662  0.00  0.00     0.001 A 
HETATM   40  C   UNK N   1      32.239  16.291   7.560  0.00  0.00     0.000 A 
HETATM   41  C   UNK N   1      31.900  17.339   8.420  0.00  0.00     0.001 A 
HETATM   42  C   UNK N   1      30.614  17.880   8.383  0.00  0.00     0.008 A 
ENDBRANCH  30  37
ENDBRANCH  29  30
ENDBRANCH  27  29
ENDBRANCH  20  27
BRANCH  23  43
HETATM   43  C   UNK N   1      22.626  14.760   6.499  0.00  0.00     0.285 C 
HETATM   44  N   UNK N   1      22.096  13.853   5.652  0.00  0.00    -0.353 N 
HETATM   45  H   UNK N   1      21.596  13.091   6.022  0.00  0.00     0.162 HD
HETATM   46  O   UNK N   1      22.393  14.675   7.687  0.00  0.00    -0.264 OA
BRANCH  44  47
HETATM   47  C   UNK N   1      22.239  13.968   4.221  0.00  0.00     0.142 C 
BRANCH  47  48
HETATM   48  C   UNK N   1      23.015  12.794   3.690  0.00  0.00     0.143 C 
BRANCH  48  49
HETATM   49  N   UNK N   1      24.458  12.912   3.787  0.00  0.00    -0.355 N 
HETATM   50  C   UNK N   1      25.356  12.929   2.847  0.00  0.00     0.213 C 
ATOM     51  HN  UNK N   1      24.823  12.994   4.736  1.00  0.00     0.163 HD
BRANCH  50  52
HETATM   52  N   UNK N   1      26.722  12.970   3.203  0.00  0.00    -0.352 N 
HETATM   53  H   UNK N   1      27.318  12.234   2.936  0.00  0.00     0.163 HD
BRANCH  52  54
HETATM   54  C   UNK N   1      27.251  14.082   3.956  0.00  0.00     0.088 C 
HETATM   55  C   UNK N   1      28.529  13.626   4.685  0.00  0.00     0.045 C 
HETATM   56  C   UNK N   1      29.508  13.089   3.647  0.00  0.00     0.126 C 
HETATM   57  N   UNK N   1      29.813  14.206   2.797  0.00  0.00    -0.367 N 
HETATM   58  C   UNK N   1      28.730  14.792   2.030  0.00  0.00     0.126 C 
HETATM   59  C   UNK N   1      27.600  15.214   2.983  0.00  0.00     0.045 C 
BRANCH  57  60
HETATM   60  C   UNK N   1      30.977  14.958   3.084  0.00  0.00     0.102 A 
HETATM   61  C   UNK N   1      30.950  16.358   2.987  0.00  0.00     0.048 A 
HETATM   62  C   UNK N   1      32.123  17.083   3.159  0.00  0.00     0.005 A 
HETATM   63  C   UNK N   1      33.318  16.408   3.402  0.00  0.00     0.017 A 
HETATM   64  C   UNK N   1      33.312  15.014   3.494  0.00  0.00     0.089 A 
HETATM   65  N   UNK N   1      32.154  14.322   3.338  0.00  0.00    -0.352 N 
ATOM     66  HN  UNK N   1      32.165  13.305   3.412  1.00  0.00     0.166 HD
ENDBRANCH  57  60
ENDBRANCH  52  54
ENDBRANCH  50  52
BRANCH  50  67
HETATM   67  O   UNK N   1      25.043  12.804   1.545  0.00  0.00    -0.333 OA
HETATM   68  H   UNK N   1      24.731  13.351   0.850  0.00  0.00     0.220 HD
ENDBRANCH  50  67
ENDBRANCH  48  49
ENDBRANCH  47  48
ENDBRANCH  44  47
ENDBRANCH  23  43
ENDBRANCH   9  15
ENDBRANCH   1   6
BRANCH   2  69
HETATM   69  C   UNK N   1      19.104  15.601   0.107  0.00  0.00     0.117 C 
HETATM   70  C   UNK N   1      18.848  14.196   0.605  0.00  0.00     0.026 C 
ENDBRANCH   2  69
TORSDOF 18
ENDMDL
MODEL 4
REMARK VINA RESULT:      -8.7      0.544      2.687
REMARK  18 active torsions:
REMARK  status: ('A' for Active; 'I' for Inactive)
REMARK    1  A    between atoms: N_41  and  C_2 
REMARK    2  A    between atoms: C_20  and  C_19 
REMARK    3  A    between atoms: N_45  and  C_19 
REMARK    4  A    between atoms: N_46  and  C_20 
REMARK    5  A    between atoms: C_28  and  C_23 
REMARK    6  A    between atoms: N_48  and  C_23 
REMARK    7  A    between atoms: C_28  and  C_25 
REMARK    8  A    between atoms: C_28  and  C_26 
REMARK    9  A    between atoms: N_51  and  C_27 
REMARK   10  A    between atoms: N_56  and  C_29 
REMARK   11  A    between atoms: C_31  and  O_58 
REMARK   12  A    between atoms: C_32  and  O_59 
REMARK   13  A    between atoms: C_33  and  C_37 
REMARK   14  A    between atoms: N_48  and  C_34 
REMARK   15  A    between atoms: C_38  and  C_35 
REMARK       I    between atoms: N_45  and  C_38 
REMARK   16  A    between atoms: C_39  and  N_57 
REMARK   17  A    between atoms: N_51  and  C_40 
REMARK   18  A    between atoms: O_62  and  C_40 
ROOT
HETATM    1  C   UNK N   1      19.698  17.268   0.647  0.00  0.00     0.143 C 
HETATM    2  N   UNK N   1      19.023  16.180   0.811  0.00  0.00    -0.373 N 
ATOM      3  HN  UNK N   1      18.615  15.972   1.722  1.00  0.00     0.161 HD
HETATM    4  O   UNK N   1      20.288  17.519  -0.543  0.00  0.00    -0.348 OA
HETATM    5  H   UNK N   1      20.780  17.720  -1.316  0.00  0.00     0.219 HD
ENDROOT
BRANCH   1   6
HETATM    6  C   UNK N   1      19.768  18.310   1.753  0.00  0.00     0.229 C 
HETATM    7  C   UNK N   1      21.002  19.197   1.627  0.00  0.00     0.188 C 
HETATM    8  C   UNK N   1      21.001  19.821   2.981  0.00  0.00     0.199 C 
HETATM    9  C   UNK N   1      20.616  18.627   3.854  0.00  0.00     0.262 C 
HETATM   10  O   UNK N   1      19.812  17.756   3.052  0.00  0.00    -0.347 OA
BRANCH   7  11
HETATM   11  O   UNK N   1      20.872  20.140   0.602  0.00  0.00    -0.390 OA
HETATM   12  H   UNK N   1      20.486  20.028  -0.281  0.00  0.00     0.210 HD
ENDBRANCH   7  11
BRANCH   8  13
HETATM   13  O   UNK N   1      22.209  20.435   3.319  0.00  0.00    -0.388 OA
HETATM   14  H   UNK N   1      22.409  21.381   3.390  0.00  0.00     0.210 HD
ENDBRANCH   8  13
BRANCH   9  15
HETATM   15  N   UNK N   1      21.716  17.873   4.479  0.00  0.00    -0.297 N 
HETATM   16  C   UNK N   1      22.507  18.261   5.518  0.00  0.00     0.188 A 
HETATM   17  N   UNK N   1      23.235  17.212   6.004  0.00  0.00    -0.346 N 
HETATM   18  C   UNK N   1      22.874  16.168   5.232  0.00  0.00     0.122 A 
ATOM     19  HN  UNK N   1      23.902  17.218   6.776  1.00  0.00     0.167 HD
HETATM   20  C   UNK N   1      23.192  14.809   5.308  0.00  0.00     0.134 A 
HETATM   21  C   UNK N   1      21.991  16.583   4.305  0.00  0.00     0.143 A 
HETATM   22  N   UNK N   1      22.688  13.993   4.350  0.00  0.00    -0.322 N 
HETATM   23  C   UNK N   1      21.837  14.457   3.389  0.00  0.00     0.177 A 
ATOM     24  HN  UNK N   1      22.952  13.008   4.347  1.00  0.00     0.169 HD
HETATM   25  N   UNK N   1      21.437  15.752   3.398  0.00  0.00    -0.322 N 
ATOM     26  HN  UNK N   1      20.736  16.089   2.737  1.00  0.00     0.169 HD
BRANCH  20  27
HETATM   27  N   UNK N   1      23.957  14.235   6.335  0.00  0.00    -0.373 N 
HETATM   28  H   UNK N   1      24.516  14.831   6.885  0.00  0.00     0.161 HD
BRANCH  27  29
HETATM   29  C   UNK N   1      23.972  12.842   6.630  0.00  0.00     0.135 C 
BRANCH  29  30
HETATM   30  C   UNK N   1      22.708  12.532   7.399  0.00  0.00     0.069 C 
BRANCH  30  31
HETATM   31  C   UNK N   1      22.990  12.349   8.881  0.00  0.00    -0.048 A 
HETATM   32  C   UNK N   1      21.905  12.337   9.779  0.00  0.00     0.008 A 
HETATM   33  C   UNK N   1      22.109  12.212  11.153  0.00  0.00     0.001 A 
HETATM   34  C   UNK N   1      23.407  12.095  11.649  0.00  0.00     0.000 A 
HETATM   35  C   UNK N   1      24.494  12.093  10.770  0.00  0.00     0.001 A 
HETATM   36  C   UNK N   1      24.289  12.219   9.388  0.00  0.00     0.008 A 
ENDBRANCH  30  31
BRANCH  30  37
HETATM   37  C   UNK N   1      21.977  11.476   6.640  0.00  0.00    -0.048 A 
HETATM   38  C   UNK N   1      22.596  10.275   6.264  0.00  0.00     0.008 A 
HETATM   39  C   UNK N   1      21.920   9.373   5.435  0.00  0.00     0.001 A 
HETATM   40  C   UNK N   1      20.642   9.683   4.958  0.00  0.00     0.000 A 
HETATM   41  C   UNK N   1      20.031  10.886   5.321  0.00  0.00     0.001 A 
HETATM   42  C   UNK N   1      20.699  11.780   6.159  0.00  0.00     0.008 A 
ENDBRANCH  30  37
ENDBRANCH  29  30
ENDBRANCH  27  29
ENDBRANCH  20  27
BRANCH  23  43
HETATM   43  C   UNK N   1      21.433  13.601   2.281  0.00  0.00     0.285 C 
HETATM   44  N   UNK N   1      22.090  13.634   1.103  0.00  0.00    -0.353 N 
HETATM   45  H   UNK N   1      21.789  13.048   0.372  0.00  0.00     0.162 HD
HETATM   46  O   UNK N   1      20.429  12.927   2.386  0.00  0.00    -0.264 OA
BRANCH  44  47
HETATM   47  C   UNK N   1      23.219  14.504   0.881  0.00  0.00     0.142 C 
BRANCH  47  48
HETATM   48  C   UNK N   1      24.492  13.792   1.250  0.00  0.00     0.143 C 
BRANCH  48  49
HETATM   49  N   UNK N   1      25.540  14.639   1.786  0.00  0.00    -0.355 N 
HETATM   50  C   UNK N   1      26.347  14.433   2.785  0.00  0.00     0.213 C 
ATOM     51  HN  UNK N   1      25.664  15.531   1.307  1.00  0.00     0.163 HD
BRANCH  50  52
HETATM   52  N   UNK N   1      27.239  15.457   3.170  0.00  0.00    -0.352 N 
HETATM   53  H   UNK N   1      28.181  15.415   2.886  0.00  0.00     0.163 HD
BRANCH  52  54
HETATM   54  C   UNK N   1      26.783  16.564   3.976  0.00  0.00     0.088 C 
HETATM   55  C   UNK N   1      26.592  16.079   5.425  0.00  0.00     0.045 C 
HETATM   56  C   UNK N   1      27.913  15.491   5.911  0.00  0.00     0.126 C 
HETATM   57  N   UNK N   1      28.847  16.582   5.889  0.00  0.00    -0.367 N 
HETATM   58  C   UNK N   1      29.151  17.190   4.608  0.00  0.00     0.126 C 
HETATM   59  C   UNK N   1      27.848  17.666   3.947  0.00  0.00     0.045 C 
BRANCH  57  60
HETATM   60  C   UNK N   1      29.055  17.300   7.091  0.00  0.00     0.102 A 
HETATM   61  C   UNK N   1      30.357  17.495   7.577  0.00  0.00     0.048 A 
HETATM   62  C   UNK N   1      30.548  18.101   8.812  0.00  0.00     0.005 A 
HETATM   63  C   UNK N   1      29.441  18.486   9.566  0.00  0.00     0.017 A 
HETATM   64  C   UNK N   1      28.157  18.279   9.056  0.00  0.00     0.089 A 
HETATM   65  N   UNK N   1      27.990  17.699   7.839  0.00  0.00    -0.352 N 
ATOM     66  HN  UNK N   1      27.046  17.559   7.478  1.00  0.00     0.166 HD
ENDBRANCH  57  60
ENDBRANCH  52  54
ENDBRANCH  50  52
BRANCH  50  67
HETATM   67  O   UNK N   1      26.297  13.319   3.537  0.00  0.00    -0.333 OA
HETATM   68  H   UNK N   1      26.870  12.832   4.097  0.00  0.00     0.220 HD
ENDBRANCH  50  67
ENDBRANCH  48  49
ENDBRANCH  47  48
ENDBRANCH  44  47
ENDBRANCH  23  43
ENDBRANCH   9  15
ENDBRANCH   1   6
BRANCH   2  69
HETATM   69  C   UNK N   1      18.842  15.248  -0.285  0.00  0.00     0.117 C 
HETATM   70  C   UNK N   1      18.076  14.013   0.136  0.00  0.00     0.026 C 
ENDBRANCH   2  69
TORSDOF 18
ENDMDL
MODEL 5
REMARK VINA RESULT:      -8.6      1.598      3.248
REMARK  18 active torsions:
REMARK  status: ('A' for Active; 'I' for Inactive)
REMARK    1  A    between atoms: N_41  and  C_2 
REMARK    2  A    between atoms: C_20  and  C_19 
REMARK    3  A    between atoms: N_45  and  C_19 
REMARK    4  A    between atoms: N_46  and  C_20 
REMARK    5  A    between atoms: C_28  and  C_23 
REMARK    6  A    between atoms: N_48  and  C_23 
REMARK    7  A    between atoms: C_28  and  C_25 
REMARK    8  A    between atoms: C_28  and  C_26 
REMARK    9  A    between atoms: N_51  and  C_27 
REMARK   10  A    between atoms: N_56  and  C_29 
REMARK   11  A    between atoms: C_31  and  O_58 
REMARK   12  A    between atoms: C_32  and  O_59 
REMARK   13  A    between atoms: C_33  and  C_37 
REMARK   14  A    between atoms: N_48  and  C_34 
REMARK   15  A    between atoms: C_38  and  C_35 
REMARK       I    between atoms: N_45  and  C_38 
REMARK   16  A    between atoms: C_39  and  N_57 
REMARK   17  A    between atoms: N_51  and  C_40 
REMARK   18  A    between atoms: O_62  and  C_40 
ROOT
HETATM    1  C   UNK N   1      19.692  16.914   0.783  0.00  0.00     0.143 C 
HETATM    2  N   UNK N   1      19.054  15.810   0.987  0.00  0.00    -0.373 N 
ATOM      3  HN  UNK N   1      18.613  15.642   1.891  1.00  0.00     0.161 HD
HETATM    4  O   UNK N   1      20.327  17.115  -0.394  0.00  0.00    -0.348 OA
HETATM    5  H   UNK N   1      20.846  17.289  -1.155  0.00  0.00     0.219 HD
ENDROOT
BRANCH   1   6
HETATM    6  C   UNK N   1      19.669  18.024   1.823  0.00  0.00     0.229 C 
HETATM    7  C   UNK N   1      20.866  18.960   1.687  0.00  0.00     0.188 C 
HETATM    8  C   UNK N   1      20.781  19.666   2.997  0.00  0.00     0.199 C 
HETATM    9  C   UNK N   1      20.415  18.511   3.929  0.00  0.00     0.262 C 
HETATM   10  O   UNK N   1      19.686  17.555   3.155  0.00  0.00    -0.347 OA
BRANCH   7  11
HETATM   11  O   UNK N   1      20.735  19.831   0.599  0.00  0.00    -0.390 OA
HETATM   12  H   UNK N   1      21.401  20.416   0.206  0.00  0.00     0.210 HD
ENDBRANCH   7  11
BRANCH   8  13
HETATM   13  O   UNK N   1      21.945  20.358   3.340  0.00  0.00    -0.388 OA
HETATM   14  H   UNK N   1      22.273  20.592   4.222  0.00  0.00     0.210 HD
ENDBRANCH   8  13
BRANCH   9  15
HETATM   15  N   UNK N   1      21.522  17.852   4.643  0.00  0.00    -0.297 N 
HETATM   16  C   UNK N   1      21.910  18.039   5.934  0.00  0.00     0.188 A 
HETATM   17  N   UNK N   1      22.791  17.073   6.332  0.00  0.00    -0.346 N 
HETATM   18  C   UNK N   1      22.938  16.288   5.247  0.00  0.00     0.122 A 
ATOM     19  HN  UNK N   1      23.237  16.970   7.244  1.00  0.00     0.167 HD
HETATM   20  C   UNK N   1      23.620  15.082   5.065  0.00  0.00     0.134 A 
HETATM   21  C   UNK N   1      22.200  16.782   4.235  0.00  0.00     0.143 A 
HETATM   22  N   UNK N   1      23.608  14.536   3.824  0.00  0.00    -0.322 N 
HETATM   23  C   UNK N   1      22.893  15.094   2.803  0.00  0.00     0.177 A 
ATOM     24  HN  UNK N   1      24.146  13.688   3.649  1.00  0.00     0.169 HD
HETATM   25  N   UNK N   1      22.134  16.194   3.022  0.00  0.00    -0.322 N 
ATOM     26  HN  UNK N   1      21.530  16.570   2.290  1.00  0.00     0.169 HD
BRANCH  20  27
HETATM   27  N   UNK N   1      24.273  14.382   6.092  0.00  0.00    -0.373 N 
HETATM   28  H   UNK N   1      24.938  14.868   6.633  0.00  0.00     0.161 HD
BRANCH  27  29
HETATM   29  C   UNK N   1      24.032  13.013   6.399  0.00  0.00     0.135 C 
BRANCH  29  30
HETATM   30  C   UNK N   1      22.696  12.940   7.103  0.00  0.00     0.069 C 
BRANCH  30  31
HETATM   31  C   UNK N   1      22.865  12.677   8.590  0.00  0.00    -0.048 A 
HETATM   32  C   UNK N   1      24.168  12.532   9.106  0.00  0.00     0.008 A 
HETATM   33  C   UNK N   1      24.379  12.251  10.456  0.00  0.00     0.001 A 
HETATM   34  C   UNK N   1      23.287  12.112  11.311  0.00  0.00     0.000 A 
HETATM   35  C   UNK N   1      21.988  12.265  10.816  0.00  0.00     0.001 A 
HETATM   36  C   UNK N   1      21.775  12.547   9.459  0.00  0.00     0.008 A 
ENDBRANCH  30  31
BRANCH  30  37
HETATM   37  C   UNK N   1      21.812  12.060   6.283  0.00  0.00    -0.048 A 
HETATM   38  C   UNK N   1      20.565  12.498   5.815  0.00  0.00     0.008 A 
HETATM   39  C   UNK N   1      19.709  11.599   5.170  0.00  0.00     0.001 A 
HETATM   40  C   UNK N   1      20.084  10.260   5.020  0.00  0.00     0.000 A 
HETATM   41  C   UNK N   1      21.321   9.820   5.499  0.00  0.00     0.001 A 
HETATM   42  C   UNK N   1      22.181  10.720   6.130  0.00  0.00     0.008 A 
ENDBRANCH  30  37
ENDBRANCH  29  30
ENDBRANCH  27  29
ENDBRANCH  20  27
BRANCH  23  43
HETATM   43  C   UNK N   1      23.019  14.581   1.445  0.00  0.00     0.285 C 
HETATM   44  N   UNK N   1      24.202  14.127   0.982  0.00  0.00    -0.353 N 
HETATM   45  H   UNK N   1      24.256  13.793   0.057  0.00  0.00     0.162 HD
HETATM   46  O   UNK N   1      22.074  14.663   0.688  0.00  0.00    -0.264 OA
BRANCH  44  47
HETATM   47  C   UNK N   1      25.391  14.116   1.799  0.00  0.00     0.142 C 
BRANCH  47  48
HETATM   48  C   UNK N   1      26.191  15.365   1.551  0.00  0.00     0.143 C 
BRANCH  48  49
HETATM   49  N   UNK N   1      26.973  15.832   2.681  0.00  0.00    -0.355 N 
HETATM   50  C   UNK N   1      26.735  16.803   3.512  0.00  0.00     0.213 C 
ATOM     51  HN  UNK N   1      27.840  15.322   2.849  1.00  0.00     0.163 HD
BRANCH  50  52
HETATM   52  N   UNK N   1      27.700  17.120   4.492  0.00  0.00    -0.352 N 
HETATM   53  H   UNK N   1      27.946  18.061   4.647  0.00  0.00     0.163 HD
BRANCH  52  54
HETATM   54  C   UNK N   1      28.330  16.078   5.267  0.00  0.00     0.088 C 
HETATM   55  C   UNK N   1      29.762  15.864   4.743  0.00  0.00     0.045 C 
HETATM   56  C   UNK N   1      30.504  17.194   4.818  0.00  0.00     0.126 C 
HETATM   57  N   UNK N   1      30.549  17.528   6.214  0.00  0.00    -0.367 N 
HETATM   58  C   UNK N   1      29.291  17.756   6.899  0.00  0.00     0.126 C 
HETATM   59  C   UNK N   1      28.388  16.523   6.733  0.00  0.00     0.045 C 
BRANCH  57  60
HETATM   60  C   UNK N   1      31.707  17.169   6.944  0.00  0.00     0.102 A 
HETATM   61  C   UNK N   1      32.980  17.412   6.406  0.00  0.00     0.048 A 
HETATM   62  C   UNK N   1      34.109  16.955   7.075  0.00  0.00     0.005 A 
HETATM   63  C   UNK N   1      33.962  16.239   8.261  0.00  0.00     0.017 A 
HETATM   64  C   UNK N   1      32.682  16.014   8.772  0.00  0.00     0.089 A 
HETATM   65  N   UNK N   1      31.590  16.480   8.113  0.00  0.00    -0.352 N 
ATOM     66  HN  UNK N   1      30.661  16.311   8.501  1.00  0.00     0.166 HD
ENDBRANCH  57  60
ENDBRANCH  52  54
ENDBRANCH  50  52
BRANCH  50  67
HETATM   67  O   UNK N   1      25.648  17.590   3.413  0.00  0.00    -0.333 OA
HETATM   68  H   UNK N   1      25.421  18.485   3.578  0.00  0.00     0.220 HD
ENDBRANCH  50  67
ENDBRANCH  48  49
ENDBRANCH  47  48
ENDBRANCH  44  47
ENDBRANCH  23  43
ENDBRANCH   9  15
ENDBRANCH   1   6
BRANCH   2  69
HETATM   69  C   UNK N   1      18.961  14.805  -0.054  0.00  0.00     0.117 C 
HETATM   70  C   UNK N   1      18.634  13.436   0.501  0.00  0.00     0.026 C 
ENDBRANCH   2  69
TORSDOF 18
ENDMDL
MODEL 6
REMARK VINA RESULT:      -8.6      8.582     14.112
REMARK  18 active torsions:
REMARK  status: ('A' for Active; 'I' for Inactive)
REMARK    1  A    between atoms: N_41  and  C_2 
REMARK    2  A    between atoms: C_20  and  C_19 
REMARK    3  A    between atoms: N_45  and  C_19 
REMARK    4  A    between atoms: N_46  and  C_20 
REMARK    5  A    between atoms: C_28  and  C_23 
REMARK    6  A    between atoms: N_48  and  C_23 
REMARK    7  A    between atoms: C_28  and  C_25 
REMARK    8  A    between atoms: C_28  and  C_26 
REMARK    9  A    between atoms: N_51  and  C_27 
REMARK   10  A    between atoms: N_56  and  C_29 
REMARK   11  A    between atoms: C_31  and  O_58 
REMARK   12  A    between atoms: C_32  and  O_59 
REMARK   13  A    between atoms: C_33  and  C_37 
REMARK   14  A    between atoms: N_48  and  C_34 
REMARK   15  A    between atoms: C_38  and  C_35 
REMARK       I    between atoms: N_45  and  C_38 
REMARK   16  A    between atoms: C_39  and  N_57 
REMARK   17  A    between atoms: N_51  and  C_40 
REMARK   18  A    between atoms: O_62  and  C_40 
ROOT
HETATM    1  C   UNK N   1      36.030  14.624   6.115  0.00  0.00     0.143 C 
HETATM    2  N   UNK N   1      35.372  14.429   5.021  0.00  0.00    -0.373 N 
ATOM      3  HN  UNK N   1      35.721  13.760   4.335  1.00  0.00     0.161 HD
HETATM    4  O   UNK N   1      35.602  15.552   7.000  0.00  0.00    -0.348 OA
HETATM    5  H   UNK N   1      35.401  16.225   7.620  0.00  0.00     0.219 HD
ENDROOT
BRANCH   1   6
HETATM    6  C   UNK N   1      37.239  13.766   6.454  0.00  0.00     0.229 C 
HETATM    7  C   UNK N   1      36.870  12.293   6.610  0.00  0.00     0.188 C 
HETATM    8  C   UNK N   1      38.106  11.796   7.279  0.00  0.00     0.199 C 
HETATM    9  C   UNK N   1      38.397  12.943   8.247  0.00  0.00     0.262 C 
HETATM   10  O   UNK N   1      37.882  14.140   7.655  0.00  0.00    -0.347 OA
BRANCH   7  11
HETATM   11  O   UNK N   1      36.643  11.673   5.376  0.00  0.00    -0.390 OA
HETATM   12  H   UNK N   1      35.797  11.475   4.944  0.00  0.00     0.210 HD
ENDBRANCH   7  11
BRANCH   8  13
HETATM   13  O   UNK N   1      37.956  10.542   7.876  0.00  0.00    -0.388 OA
HETATM   14  H   UNK N   1      37.623   9.720   7.485  0.00  0.00     0.210 HD
ENDBRANCH   8  13
BRANCH   9  15
HETATM   15  N   UNK N   1      37.896  12.799   9.624  0.00  0.00    -0.297 N 
HETATM   16  C   UNK N   1      38.291  11.898  10.566  0.00  0.00     0.188 A 
HETATM   17  N   UNK N   1      37.809  12.227  11.801  0.00  0.00    -0.346 N 
HETATM   18  C   UNK N   1      37.101  13.356  11.593  0.00  0.00     0.122 A 
ATOM     19  HN  UNK N   1      37.952  11.731  12.681  1.00  0.00     0.167 HD
HETATM   20  C   UNK N   1      36.465  14.224  12.484  0.00  0.00     0.134 A 
HETATM   21  C   UNK N   1      37.134  13.668  10.284  0.00  0.00     0.143 A 
HETATM   22  N   UNK N   1      35.796  15.281  11.959  0.00  0.00    -0.322 N 
HETATM   23  C   UNK N   1      35.804  15.539  10.619  0.00  0.00     0.177 A 
ATOM     24  HN  UNK N   1      35.274  15.897  12.582  1.00  0.00     0.169 HD
HETATM   25  N   UNK N   1      36.526  14.761   9.777  0.00  0.00    -0.322 N 
ATOM     26  HN  UNK N   1      36.608  14.994   8.787  1.00  0.00     0.169 HD
BRANCH  20  27
HETATM   27  N   UNK N   1      36.517  14.098  13.881  0.00  0.00    -0.373 N 
HETATM   28  H   UNK N   1      37.308  14.452  14.349  0.00  0.00     0.161 HD
BRANCH  27  29
HETATM   29  C   UNK N   1      35.494  13.488  14.662  0.00  0.00     0.135 C 
BRANCH  29  30
HETATM   30  C   UNK N   1      36.117  12.314  15.381  0.00  0.00     0.069 C 
BRANCH  30  31
HETATM   31  C   UNK N   1      35.956  11.027  14.588  0.00  0.00    -0.048 A 
HETATM   32  C   UNK N   1      37.059  10.159  14.477  0.00  0.00     0.008 A 
HETATM   33  C   UNK N   1      36.979   8.985  13.728  0.00  0.00     0.001 A 
HETATM   34  C   UNK N   1      35.788   8.662  13.079  0.00  0.00     0.000 A 
HETATM   35  C   UNK N   1      34.679   9.507  13.190  0.00  0.00     0.001 A 
HETATM   36  C   UNK N   1      34.761  10.688  13.942  0.00  0.00     0.008 A 
ENDBRANCH  30  31
BRANCH  30  37
HETATM   37  C   UNK N   1      35.670  12.378  16.803  0.00  0.00    -0.048 A 
HETATM   38  C   UNK N   1      35.424  13.601  17.445  0.00  0.00     0.008 A 
HETATM   39  C   UNK N   1      35.142  13.623  18.814  0.00  0.00     0.001 A 
HETATM   40  C   UNK N   1      35.136  12.432  19.547  0.00  0.00     0.000 A 
HETATM   41  C   UNK N   1      35.394  11.215  18.911  0.00  0.00     0.001 A 
HETATM   42  C   UNK N   1      35.662  11.190  17.542  0.00  0.00     0.008 A 
ENDBRANCH  30  37
ENDBRANCH  29  30
ENDBRANCH  27  29
ENDBRANCH  20  27
BRANCH  23  43
HETATM   43  C   UNK N   1      34.953  16.583  10.062  0.00  0.00     0.285 C 
HETATM   44  N   UNK N   1      33.700  16.307   9.642  0.00  0.00    -0.353 N 
HETATM   45  H   UNK N   1      33.154  17.034   9.265  0.00  0.00     0.162 HD
HETATM   46  O   UNK N   1      35.415  17.690   9.875  0.00  0.00    -0.264 OA
BRANCH  44  47
HETATM   47  C   UNK N   1      33.139  14.982   9.729  0.00  0.00     0.142 C 
BRANCH  47  48
HETATM   48  C   UNK N   1      32.705  14.521   8.365  0.00  0.00     0.143 C 
BRANCH  48  49
HETATM   49  N   UNK N   1      31.763  15.393   7.689  0.00  0.00    -0.355 N 
HETATM   50  C   UNK N   1      31.027  15.169   6.640  0.00  0.00     0.213 C 
ATOM     51  HN  UNK N   1      31.663  16.323   8.097  1.00  0.00     0.163 HD
BRANCH  50  52
HETATM   52  N   UNK N   1      30.240  16.218   6.116  0.00  0.00    -0.352 N 
HETATM   53  H   UNK N   1      30.282  17.111   6.529  0.00  0.00     0.163 HD
BRANCH  52  54
HETATM   54  C   UNK N   1      29.377  15.992   4.982  0.00  0.00     0.088 C 
HETATM   55  C   UNK N   1      27.945  15.743   5.488  0.00  0.00     0.045 C 
HETATM   56  C   UNK N   1      27.520  16.939   6.333  0.00  0.00     0.126 C 
HETATM   57  N   UNK N   1      27.523  18.060   5.435  0.00  0.00    -0.367 N 
HETATM   58  C   UNK N   1      28.786  18.448   4.836  0.00  0.00     0.126 C 
HETATM   59  C   UNK N   1      29.391  17.244   4.097  0.00  0.00     0.045 C 
BRANCH  57  60
HETATM   60  C   UNK N   1      26.299  18.422   4.823  0.00  0.00     0.102 A 
HETATM   61  C   UNK N   1      26.292  19.317   3.741  0.00  0.00     0.048 A 
HETATM   62  C   UNK N   1      25.081  19.756   3.219  0.00  0.00     0.005 A 
HETATM   63  C   UNK N   1      23.888  19.321   3.792  0.00  0.00     0.017 A 
HETATM   64  C   UNK N   1      23.928  18.430   4.868  0.00  0.00     0.089 A 
HETATM   65  N   UNK N   1      25.120  17.999   5.356  0.00  0.00    -0.352 N 
ATOM     66  HN  UNK N   1      25.132  17.345   6.139  1.00  0.00     0.166 HD
ENDBRANCH  57  60
ENDBRANCH  52  54
ENDBRANCH  50  52
BRANCH  50  67
HETATM   67  O   UNK N   1      31.060  14.004   5.968  0.00  0.00    -0.333 OA
HETATM   68  H   UNK N   1      31.670  13.522   5.443  0.00  0.00     0.220 HD
ENDBRANCH  50  67
ENDBRANCH  48  49
ENDBRANCH  47  48
ENDBRANCH  44  47
ENDBRANCH  23  43
ENDBRANCH   9  15
ENDBRANCH   1   6
BRANCH   2  69
HETATM   69  C   UNK N   1      34.143  15.151   4.757  0.00  0.00     0.117 C 
HETATM   70  C   UNK N   1      33.733  15.069   3.303  0.00  0.00     0.026 C 
ENDBRANCH   2  69
TORSDOF 18
ENDMDL
MODEL 7
REMARK VINA RESULT:      -8.5      2.421      6.049
REMARK  18 active torsions:
REMARK  status: ('A' for Active; 'I' for Inactive)
REMARK    1  A    between atoms: N_41  and  C_2 
REMARK    2  A    between atoms: C_20  and  C_19 
REMARK    3  A    between atoms: N_45  and  C_19 
REMARK    4  A    between atoms: N_46  and  C_20 
REMARK    5  A    between atoms: C_28  and  C_23 
REMARK    6  A    between atoms: N_48  and  C_23 
REMARK    7  A    between atoms: C_28  and  C_25 
REMARK    8  A    between atoms: C_28  and  C_26 
REMARK    9  A    between atoms: N_51  and  C_27 
REMARK   10  A    between atoms: N_56  and  C_29 
REMARK   11  A    between atoms: C_31  and  O_58 
REMARK   12  A    between atoms: C_32  and  O_59 
REMARK   13  A    between atoms: C_33  and  C_37 
REMARK   14  A    between atoms: N_48  and  C_34 
REMARK   15  A    between atoms: C_38  and  C_35 
REMARK       I    between atoms: N_45  and  C_38 
REMARK   16  A    between atoms: C_39  and  N_57 
REMARK   17  A    between atoms: N_51  and  C_40 
REMARK   18  A    between atoms: O_62  and  C_40 
ROOT
HETATM    1  C   UNK N   1      19.939  17.061   1.333  0.00  0.00     0.143 C 
HETATM    2  N   UNK N   1      19.559  15.849   1.564  0.00  0.00    -0.373 N 
ATOM      3  HN  UNK N   1      19.521  15.507   2.524  1.00  0.00     0.161 HD
HETATM    4  O   UNK N   1      20.045  17.500   0.059  0.00  0.00    -0.348 OA
HETATM    5  H   UNK N   1      20.208  17.845  -0.798  0.00  0.00     0.219 HD
ENDROOT
BRANCH   1   6
HETATM    6  C   UNK N   1      20.194  18.025   2.482  0.00  0.00     0.229 C 
HETATM    7  C   UNK N   1      21.128  19.162   2.080  0.00  0.00     0.188 C 
HETATM    8  C   UNK N   1      21.476  19.689   3.430  0.00  0.00     0.199 C 
HETATM    9  C   UNK N   1      21.636  18.390   4.220  0.00  0.00     0.262 C 
HETATM   10  O   UNK N   1      20.779  17.417   3.614  0.00  0.00    -0.347 OA
BRANCH   7  11
HETATM   11  O   UNK N   1      20.486  20.115   1.281  0.00  0.00    -0.390 OA
HETATM   12  H   UNK N   1      20.506  20.211   0.316  0.00  0.00     0.210 HD
ENDBRANCH   7  11
BRANCH   8  13
HETATM   13  O   UNK N   1      22.594  20.526   3.436  0.00  0.00    -0.388 OA
HETATM   14  H   UNK N   1      22.628  21.493   3.379  0.00  0.00     0.210 HD
ENDBRANCH   8  13
BRANCH   9  15
HETATM   15  N   UNK N   1      23.000  17.853   4.355  0.00  0.00    -0.297 N 
HETATM   16  C   UNK N   1      24.167  18.432   3.958  0.00  0.00     0.188 A 
HETATM   17  N   UNK N   1      25.248  17.780   4.481  0.00  0.00    -0.346 N 
HETATM   18  C   UNK N   1      24.713  16.779   5.208  0.00  0.00     0.122 A 
ATOM     19  HN  UNK N   1      26.235  18.001   4.350  1.00  0.00     0.167 HD
HETATM   20  C   UNK N   1      25.302  15.842   6.061  0.00  0.00     0.134 A 
HETATM   21  C   UNK N   1      23.372  16.814   5.098  0.00  0.00     0.143 A 
HETATM   22  N   UNK N   1      24.489  14.923   6.639  0.00  0.00    -0.322 N 
HETATM   23  C   UNK N   1      23.136  14.953   6.463  0.00  0.00     0.177 A 
ATOM     24  HN  UNK N   1      24.899  14.192   7.220  1.00  0.00     0.169 HD
HETATM   25  N   UNK N   1      22.563  15.941   5.733  0.00  0.00    -0.322 N 
ATOM     26  HN  UNK N   1      21.548  16.022   5.665  1.00  0.00     0.169 HD
BRANCH  20  27
HETATM   27  N   UNK N   1      26.666  15.823   6.392  0.00  0.00    -0.373 N 
HETATM   28  H   UNK N   1      27.220  15.093   6.031  0.00  0.00     0.161 HD
BRANCH  27  29
HETATM   29  C   UNK N   1      27.296  16.796   7.219  0.00  0.00     0.135 C 
BRANCH  29  30
HETATM   30  C   UNK N   1      28.426  17.402   6.417  0.00  0.00     0.069 C 
BRANCH  30  31
HETATM   31  C   UNK N   1      29.776  17.109   7.050  0.00  0.00    -0.048 A 
HETATM   32  C   UNK N   1      30.226  17.936   8.098  0.00  0.00     0.008 A 
HETATM   33  C   UNK N   1      31.474  17.737   8.687  0.00  0.00     0.001 A 
HETATM   34  C   UNK N   1      32.291  16.701   8.237  0.00  0.00     0.000 A 
HETATM   35  C   UNK N   1      31.855  15.863   7.206  0.00  0.00     0.001 A 
HETATM   36  C   UNK N   1      30.600  16.064   6.613  0.00  0.00     0.008 A 
ENDBRANCH  30  31
BRANCH  30  37
HETATM   37  C   UNK N   1      28.038  18.807   6.098  0.00  0.00    -0.048 A 
HETATM   38  C   UNK N   1      27.424  19.637   7.048  0.00  0.00     0.008 A 
HETATM   39  C   UNK N   1      26.951  20.897   6.668  0.00  0.00     0.001 A 
HETATM   40  C   UNK N   1      27.063  21.315   5.338  0.00  0.00     0.000 A 
HETATM   41  C   UNK N   1      27.662  20.484   4.389  0.00  0.00     0.001 A 
HETATM   42  C   UNK N   1      28.146  19.231   4.770  0.00  0.00     0.008 A 
ENDBRANCH  30  37
ENDBRANCH  29  30
ENDBRANCH  27  29
ENDBRANCH  20  27
BRANCH  23  43
HETATM   43  C   UNK N   1      22.300  13.869   6.962  0.00  0.00     0.285 C 
HETATM   44  N   UNK N   1      21.955  12.835   6.166  0.00  0.00    -0.353 N 
HETATM   45  H   UNK N   1      21.385  12.121   6.532  0.00  0.00     0.162 HD
HETATM   46  O   UNK N   1      21.821  13.951   8.075  0.00  0.00    -0.264 OA
BRANCH  44  47
HETATM   47  C   UNK N   1      22.397  12.744   4.796  0.00  0.00     0.142 C 
BRANCH  47  48
HETATM   48  C   UNK N   1      23.552  11.787   4.695  0.00  0.00     0.143 C 
BRANCH  48  49
HETATM   49  N   UNK N   1      24.794  12.365   4.218  0.00  0.00    -0.355 N 
HETATM   50  C   UNK N   1      25.382  12.238   3.066  0.00  0.00     0.213 C 
ATOM     51  HN  UNK N   1      25.280  12.963   4.888  1.00  0.00     0.163 HD
BRANCH  50  52
HETATM   52  N   UNK N   1      26.643  12.843   2.868  0.00  0.00    -0.352 N 
HETATM   53  H   UNK N   1      27.213  12.548   2.121  0.00  0.00     0.163 HD
BRANCH  52  54
HETATM   54  C   UNK N   1      27.103  13.888   3.750  0.00  0.00     0.088 C 
HETATM   55  C   UNK N   1      28.390  13.416   4.452  0.00  0.00     0.045 C 
HETATM   56  C   UNK N   1      29.412  13.046   3.383  0.00  0.00     0.126 C 
HETATM   57  N   UNK N   1      29.674  14.264   2.668  0.00  0.00    -0.367 N 
HETATM   58  C   UNK N   1      28.576  14.879   1.947  0.00  0.00     0.126 C 
HETATM   59  C   UNK N   1      27.410  15.137   2.916  0.00  0.00     0.045 C 
BRANCH  57  60
HETATM   60  C   UNK N   1      30.793  15.036   3.062  0.00  0.00     0.102 A 
HETATM   61  C   UNK N   1      30.727  16.438   3.029  0.00  0.00     0.048 A 
HETATM   62  C   UNK N   1      31.864  17.186   3.307  0.00  0.00     0.005 A 
HETATM   63  C   UNK N   1      33.062  16.536   3.593  0.00  0.00     0.017 A 
HETATM   64  C   UNK N   1      33.096  15.139   3.619  0.00  0.00     0.089 A 
HETATM   65  N   UNK N   1      31.972  14.423   3.359  0.00  0.00    -0.352 N 
ATOM     66  HN  UNK N   1      32.011  13.404   3.386  1.00  0.00     0.166 HD
ENDBRANCH  57  60
ENDBRANCH  52  54
ENDBRANCH  50  52
BRANCH  50  67
HETATM   67  O   UNK N   1      24.888  11.465   2.082  0.00  0.00    -0.333 OA
HETATM   68  H   UNK N   1      24.112  10.966   1.914  0.00  0.00     0.220 HD
ENDBRANCH  50  67
ENDBRANCH  48  49
ENDBRANCH  47  48
ENDBRANCH  44  47
ENDBRANCH  23  43
ENDBRANCH   9  15
ENDBRANCH   1   6
BRANCH   2  69
HETATM   69  C   UNK N   1      19.186  14.969   0.474  0.00  0.00     0.117 C 
HETATM   70  C   UNK N   1      19.504  13.521   0.775  0.00  0.00     0.026 C 
ENDBRANCH   2  69
TORSDOF 18
ENDMDL
MODEL 8
REMARK VINA RESULT:      -8.2      2.293      5.743
REMARK  18 active torsions:
REMARK  status: ('A' for Active; 'I' for Inactive)
REMARK    1  A    between atoms: N_41  and  C_2 
REMARK    2  A    between atoms: C_20  and  C_19 
REMARK    3  A    between atoms: N_45  and  C_19 
REMARK    4  A    between atoms: N_46  and  C_20 
REMARK    5  A    between atoms: C_28  and  C_23 
REMARK    6  A    between atoms: N_48  and  C_23 
REMARK    7  A    between atoms: C_28  and  C_25 
REMARK    8  A    between atoms: C_28  and  C_26 
REMARK    9  A    between atoms: N_51  and  C_27 
REMARK   10  A    between atoms: N_56  and  C_29 
REMARK   11  A    between atoms: C_31  and  O_58 
REMARK   12  A    between atoms: C_32  and  O_59 
REMARK   13  A    between atoms: C_33  and  C_37 
REMARK   14  A    between atoms: N_48  and  C_34 
REMARK   15  A    between atoms: C_38  and  C_35 
REMARK       I    between atoms: N_45  and  C_38 
REMARK   16  A    between atoms: C_39  and  N_57 
REMARK   17  A    between atoms: N_51  and  C_40 
REMARK   18  A    between atoms: O_62  and  C_40 
ROOT
HETATM    1  C   UNK N   1      29.197  17.477   4.533  0.00  0.00     0.143 C 
HETATM    2  N   UNK N   1      30.200  17.102   3.812  0.00  0.00    -0.373 N 
ATOM      3  HN  UNK N   1      30.108  17.070   2.797  1.00  0.00     0.161 HD
HETATM    4  O   UNK N   1      29.297  17.465   5.881  0.00  0.00    -0.348 OA
HETATM    5  H   UNK N   1      29.275  17.414   6.817  0.00  0.00     0.219 HD
ENDROOT
BRANCH   1   6
HETATM    6  C   UNK N   1      27.929  18.007   3.879  0.00  0.00     0.229 C 
HETATM    7  C   UNK N   1      27.206  19.015   4.767  0.00  0.00     0.188 C 
HETATM    8  C   UNK N   1      25.888  19.059   4.072  0.00  0.00     0.199 C 
HETATM    9  C   UNK N   1      25.686  17.582   3.731  0.00  0.00     0.262 C 
HETATM   10  O   UNK N   1      26.985  17.002   3.575  0.00  0.00    -0.347 OA
BRANCH   7  11
HETATM   11  O   UNK N   1      27.846  20.259   4.782  0.00  0.00    -0.390 OA
HETATM   12  H   UNK N   1      27.622  21.063   4.286  0.00  0.00     0.210 HD
ENDBRANCH   7  11
BRANCH   8  13
HETATM   13  O   UNK N   1      24.869  19.635   4.835  0.00  0.00    -0.388 OA
HETATM   14  H   UNK N   1      24.066  19.219   5.185  0.00  0.00     0.210 HD
ENDBRANCH   8  13
BRANCH   9  15
HETATM   15  N   UNK N   1      24.881  16.784   4.670  0.00  0.00    -0.297 N 
HETATM   16  C   UNK N   1      25.323  16.013   5.702  0.00  0.00     0.188 A 
HETATM   17  N   UNK N   1      24.293  15.638   6.518  0.00  0.00    -0.346 N 
HETATM   18  C   UNK N   1      23.202  16.197   5.957  0.00  0.00     0.122 A 
ATOM     19  HN  UNK N   1      24.340  15.065   7.360  1.00  0.00     0.167 HD
HETATM   20  C   UNK N   1      21.874  16.263   6.386  0.00  0.00     0.134 A 
HETATM   21  C   UNK N   1      23.562  16.851   4.837  0.00  0.00     0.143 A 
HETATM   22  N   UNK N   1      20.983  16.881   5.573  0.00  0.00    -0.322 N 
HETATM   23  C   UNK N   1      21.372  17.488   4.414  0.00  0.00     0.177 A 
ATOM     24  HN  UNK N   1      19.997  16.892   5.834  1.00  0.00     0.169 HD
HETATM   25  N   UNK N   1      22.681  17.526   4.069  0.00  0.00    -0.322 N 
ATOM     26  HN  UNK N   1      22.994  18.049   3.250  1.00  0.00     0.169 HD
BRANCH  20  27
HETATM   27  N   UNK N   1      21.419  15.774   7.621  0.00  0.00    -0.373 N 
HETATM   28  H   UNK N   1      21.543  16.341   8.417  0.00  0.00     0.161 HD
BRANCH  27  29
HETATM   29  C   UNK N   1      20.790  14.508   7.791  0.00  0.00     0.135 C 
BRANCH  29  30
HETATM   30  C   UNK N   1      21.865  13.452   7.666  0.00  0.00     0.069 C 
BRANCH  30  31
HETATM   31  C   UNK N   1      21.484  12.390   6.649  0.00  0.00    -0.048 A 
HETATM   32  C   UNK N   1      22.277  11.230   6.553  0.00  0.00     0.008 A 
HETATM   33  C   UNK N   1      21.997  10.242   5.610  0.00  0.00     0.001 A 
HETATM   34  C   UNK N   1      20.913  10.400   4.747  0.00  0.00     0.000 A 
HETATM   35  C   UNK N   1      20.109  11.540   4.837  0.00  0.00     0.001 A 
HETATM   36  C   UNK N   1      20.391  12.534   5.785  0.00  0.00     0.008 A 
ENDBRANCH  30  31
BRANCH  30  37
HETATM   37  C   UNK N   1      22.259  13.057   9.050  0.00  0.00    -0.048 A 
HETATM   38  C   UNK N   1      23.596  12.807   9.394  0.00  0.00     0.008 A 
HETATM   39  C   UNK N   1      23.906  12.306  10.662  0.00  0.00     0.001 A 
HETATM   40  C   UNK N   1      22.883  12.025  11.574  0.00  0.00     0.000 A 
HETATM   41  C   UNK N   1      21.550  12.261  11.227  0.00  0.00     0.001 A 
HETATM   42  C   UNK N   1      21.241  12.774   9.966  0.00  0.00     0.008 A 
ENDBRANCH  30  37
ENDBRANCH  29  30
ENDBRANCH  27  29
ENDBRANCH  20  27
BRANCH  23  43
HETATM   43  C   UNK N   1      20.380  18.007   3.481  0.00  0.00     0.285 C 
HETATM   44  N   UNK N   1      19.729  17.185   2.631  0.00  0.00    -0.353 N 
HETATM   45  H   UNK N   1      19.070  17.568   2.009  0.00  0.00     0.162 HD
HETATM   46  O   UNK N   1      20.215  19.207   3.395  0.00  0.00    -0.264 OA
BRANCH  44  47
HETATM   47  C   UNK N   1      19.972  15.764   2.605  0.00  0.00     0.142 C 
BRANCH  47  48
HETATM   48  C   UNK N   1      20.430  15.349   1.235  0.00  0.00     0.143 C 
BRANCH  48  49
HETATM   49  N   UNK N   1      21.546  14.423   1.210  0.00  0.00    -0.355 N 
HETATM   50  C   UNK N   1      21.557  13.129   1.329  0.00  0.00     0.213 C 
ATOM     51  HN  UNK N   1      22.463  14.853   1.078  1.00  0.00     0.163 HD
BRANCH  50  52
HETATM   52  N   UNK N   1      22.796  12.451   1.354  0.00  0.00    -0.352 N 
HETATM   53  H   UNK N   1      23.229  12.197   0.508  0.00  0.00     0.163 HD
BRANCH  52  54
HETATM   54  C   UNK N   1      23.430  12.127   2.610  0.00  0.00     0.088 C 
HETATM   55  C   UNK N   1      24.652  11.232   2.333  0.00  0.00     0.045 C 
HETATM   56  C   UNK N   1      25.577  11.968   1.370  0.00  0.00     0.126 C 
HETATM   57  N   UNK N   1      25.996  13.150   2.071  0.00  0.00    -0.367 N 
HETATM   58  C   UNK N   1      24.980  14.119   2.437  0.00  0.00     0.126 C 
HETATM   59  C   UNK N   1      23.894  13.427   3.276  0.00  0.00     0.045 C 
BRANCH  57  60
HETATM   60  C   UNK N   1      27.227  13.106   2.767  0.00  0.00     0.102 A 
HETATM   61  C   UNK N   1      28.189  12.139   2.433  0.00  0.00     0.048 A 
HETATM   62  C   UNK N   1      29.346  12.028   3.193  0.00  0.00     0.005 A 
HETATM   63  C   UNK N   1      29.527  12.863   4.294  0.00  0.00     0.017 A 
HETATM   64  C   UNK N   1      28.553  13.816   4.601  0.00  0.00     0.089 A 
HETATM   65  N   UNK N   1      27.435  13.921   3.838  0.00  0.00    -0.352 N 
ATOM     66  HN  UNK N   1      26.734  14.625   4.071  1.00  0.00     0.166 HD
ENDBRANCH  57  60
ENDBRANCH  52  54
ENDBRANCH  50  52
BRANCH  50  67
HETATM   67  O   UNK N   1      20.437  12.412   1.534  0.00  0.00    -0.333 OA
HETATM   68  H   UNK N   1      20.158  11.697   2.074  0.00  0.00     0.220 HD
ENDBRANCH  50  67
ENDBRANCH  48  49
ENDBRANCH  47  48
ENDBRANCH  44  47
ENDBRANCH  23  43
ENDBRANCH   9  15
ENDBRANCH   1   6
BRANCH   2  69
HETATM   69  C   UNK N   1      31.456  16.724   4.429  0.00  0.00     0.117 C 
HETATM   70  C   UNK N   1      32.602  17.603   3.979  0.00  0.00     0.026 C 
ENDBRANCH   2  69
TORSDOF 18
ENDMDL
MODEL 9
REMARK VINA RESULT:      -8.2      9.179     14.828
REMARK  18 active torsions:
REMARK  status: ('A' for Active; 'I' for Inactive)
REMARK    1  A    between atoms: N_41  and  C_2 
REMARK    2  A    between atoms: C_20  and  C_19 
REMARK    3  A    between atoms: N_45  and  C_19 
REMARK    4  A    between atoms: N_46  and  C_20 
REMARK    5  A    between atoms: C_28  and  C_23 
REMARK    6  A    between atoms: N_48  and  C_23 
REMARK    7  A    between atoms: C_28  and  C_25 
REMARK    8  A    between atoms: C_28  and  C_26 
REMARK    9  A    between atoms: N_51  and  C_27 
REMARK   10  A    between atoms: N_56  and  C_29 
REMARK   11  A    between atoms: C_31  and  O_58 
REMARK   12  A    between atoms: C_32  and  O_59 
REMARK   13  A    between atoms: C_33  and  C_37 
REMARK   14  A    between atoms: N_48  and  C_34 
REMARK   15  A    between atoms: C_38  and  C_35 
REMARK       I    between atoms: N_45  and  C_38 
REMARK   16  A    between atoms: C_39  and  N_57 
REMARK   17  A    between atoms: N_51  and  C_40 
REMARK   18  A    between atoms: O_62  and  C_40 
ROOT
HETATM    1  C   UNK N   1      37.540  12.496   6.727  0.00  0.00     0.143 C 
HETATM    2  N   UNK N   1      38.692  11.959   6.502  0.00  0.00    -0.373 N 
ATOM      3  HN  UNK N   1      38.743  10.990   6.188  1.00  0.00     0.161 HD
HETATM    4  O   UNK N   1      37.469  13.761   7.199  0.00  0.00    -0.348 OA
HETATM    5  H   UNK N   1      37.352  14.604   7.592  0.00  0.00     0.219 HD
ENDROOT
BRANCH   1   6
HETATM    6  C   UNK N   1      36.258  11.748   6.392  0.00  0.00     0.229 C 
HETATM    7  C   UNK N   1      35.052  12.681   6.324  0.00  0.00     0.188 C 
HETATM    8  C   UNK N   1      33.955  11.673   6.361  0.00  0.00     0.199 C 
HETATM    9  C   UNK N   1      34.498  10.685   7.394  0.00  0.00     0.262 C 
HETATM   10  O   UNK N   1      35.926  10.743   7.327  0.00  0.00    -0.347 OA
BRANCH   7  11
HETATM   11  O   UNK N   1      35.040  13.443   5.151  0.00  0.00    -0.390 OA
HETATM   12  H   UNK N   1      35.782  13.877   4.702  0.00  0.00     0.210 HD
ENDBRANCH   7  11
BRANCH   8  13
HETATM   13  O   UNK N   1      32.703  12.215   6.662  0.00  0.00    -0.388 OA
HETATM   14  H   UNK N   1      32.482  13.122   6.923  0.00  0.00     0.210 HD
ENDBRANCH   8  13
BRANCH   9  15
HETATM   15  N   UNK N   1      34.045  10.858   8.785  0.00  0.00    -0.297 N 
HETATM   16  C   UNK N   1      33.045  10.191   9.425  0.00  0.00     0.188 A 
HETATM   17  N   UNK N   1      33.083  10.415  10.773  0.00  0.00    -0.346 N 
HETATM   18  C   UNK N   1      34.133  11.243  10.944  0.00  0.00     0.122 A 
ATOM     19  HN  UNK N   1      32.458  10.041  11.487  1.00  0.00     0.167 HD
HETATM   20  C   UNK N   1      34.740  11.737  12.102  0.00  0.00     0.134 A 
HETATM   21  C   UNK N   1      34.679  11.525   9.747  0.00  0.00     0.143 A 
HETATM   22  N   UNK N   1      35.781  12.591  11.947  0.00  0.00    -0.322 N 
HETATM   23  C   UNK N   1      36.277  12.901  10.714  0.00  0.00     0.177 A 
ATOM     24  HN  UNK N   1      36.205  13.013  12.774  1.00  0.00     0.169 HD
HETATM   25  N   UNK N   1      35.761  12.319   9.604  0.00  0.00    -0.322 N 
ATOM     26  HN  UNK N   1      36.178  12.477   8.686  1.00  0.00     0.169 HD
BRANCH  20  27
HETATM   27  N   UNK N   1      34.370  11.369  13.405  0.00  0.00    -0.373 N 
HETATM   28  H   UNK N   1      33.767  10.598  13.515  0.00  0.00     0.161 HD
BRANCH  27  29
HETATM   29  C   UNK N   1      34.814  12.044  14.577  0.00  0.00     0.135 C 
BRANCH  29  30
HETATM   30  C   UNK N   1      35.154  10.986  15.603  0.00  0.00     0.069 C 
BRANCH  30  31
HETATM   31  C   UNK N   1      35.159  11.558  17.010  0.00  0.00    -0.048 A 
HETATM   32  C   UNK N   1      35.124  12.957  17.172  0.00  0.00     0.008 A 
HETATM   33  C   UNK N   1      35.167  13.537  18.439  0.00  0.00     0.001 A 
HETATM   34  C   UNK N   1      35.243  12.722  19.568  0.00  0.00     0.000 A 
HETATM   35  C   UNK N   1      35.266  11.331  19.425  0.00  0.00     0.001 A 
HETATM   36  C   UNK N   1      35.225  10.748  18.151  0.00  0.00     0.008 A 
ENDBRANCH  30  31
BRANCH  30  37
HETATM   37  C   UNK N   1      36.343  10.242  15.093  0.00  0.00    -0.048 A 
HETATM   38  C   UNK N   1      36.369   8.841  15.037  0.00  0.00     0.008 A 
HETATM   39  C   UNK N   1      37.550   8.181  14.684  0.00  0.00     0.001 A 
HETATM   40  C   UNK N   1      38.710   8.915  14.417  0.00  0.00     0.000 A 
HETATM   41  C   UNK N   1      38.688  10.310  14.487  0.00  0.00     0.001 A 
HETATM   42  C   UNK N   1      37.507  10.971  14.825  0.00  0.00     0.008 A 
ENDBRANCH  30  37
ENDBRANCH  29  30
ENDBRANCH  27  29
ENDBRANCH  20  27
BRANCH  23  43
HETATM   43  C   UNK N   1      37.290  13.937  10.561  0.00  0.00     0.285 C 
HETATM   44  N   UNK N   1      36.973  15.242  10.693  0.00  0.00    -0.353 N 
HETATM   45  H   UNK N   1      37.679  15.918  10.578  0.00  0.00     0.162 HD
HETATM   46  O   UNK N   1      38.409  13.627  10.208  0.00  0.00    -0.264 OA
BRANCH  44  47
HETATM   47  C   UNK N   1      35.631  15.677  10.995  0.00  0.00     0.142 C 
BRANCH  47  48
HETATM   48  C   UNK N   1      35.396  17.045  10.416  0.00  0.00     0.143 C 
BRANCH  48  49
HETATM   49  N   UNK N   1      34.561  17.079   9.231  0.00  0.00    -0.355 N 
HETATM   50  C   UNK N   1      34.435  18.007   8.328  0.00  0.00     0.213 C 
ATOM     51  HN  UNK N   1      33.985  16.250   9.082  1.00  0.00     0.163 HD
BRANCH  50  52
HETATM   52  N   UNK N   1      33.484  17.839   7.298  0.00  0.00    -0.352 N 
HETATM   53  H   UNK N   1      32.957  18.612   6.991  0.00  0.00     0.163 HD
BRANCH  52  54
HETATM   54  C   UNK N   1      33.277  16.545   6.694  0.00  0.00     0.088 C 
HETATM   55  C   UNK N   1      31.803  16.139   6.880  0.00  0.00     0.045 C 
HETATM   56  C   UNK N   1      30.925  17.228   6.274  0.00  0.00     0.126 C 
HETATM   57  N   UNK N   1      31.246  17.241   4.874  0.00  0.00    -0.367 N 
HETATM   58  C   UNK N   1      32.601  17.589   4.490  0.00  0.00     0.126 C 
HETATM   59  C   UNK N   1      33.588  16.646   5.196  0.00  0.00     0.045 C 
BRANCH  57  60
HETATM   60  C   UNK N   1      30.423  16.492   3.999  0.00  0.00     0.102 A 
HETATM   61  C   UNK N   1      29.082  16.861   3.808  0.00  0.00     0.048 A 
HETATM   62  C   UNK N   1      28.251  16.057   3.038  0.00  0.00     0.005 A 
HETATM   63  C   UNK N   1      28.753  14.881   2.484  0.00  0.00     0.017 A 
HETATM   64  C   UNK N   1      30.092  14.541   2.692  0.00  0.00     0.089 A 
HETATM   65  N   UNK N   1      30.895  15.346   3.435  0.00  0.00    -0.352 N 
ATOM     66  HN  UNK N   1      31.872  15.088   3.574  1.00  0.00     0.166 HD
ENDBRANCH  57  60
ENDBRANCH  52  54
ENDBRANCH  50  52
BRANCH  50  67
HETATM   67  O   UNK N   1      35.104  19.173   8.391  0.00  0.00    -0.333 OA
HETATM   68  H   UNK N   1      34.902  20.087   8.442  0.00  0.00     0.220 HD
ENDBRANCH  50  67
ENDBRANCH  48  49
ENDBRANCH  47  48
ENDBRANCH  44  47
ENDBRANCH  23  43
ENDBRANCH   9  15
ENDBRANCH   1   6
BRANCH   2  69
HETATM   69  C   UNK N   1      39.913  12.716   6.694  0.00  0.00     0.117 C 
HETATM   70  C   UNK N   1      40.882  12.538   5.546  0.00  0.00     0.026 C 
ENDBRANCH   2  69
TORSDOF 18
ENDMDL
