MODEL 1
REMARK VINA RESULT:      -5.7      0.000      0.000
REMARK  3 active torsions:
REMARK  status: ('A' for Active; 'I' for Inactive)
REMARK    1  A    between atoms: C_8  and  N_10 
REMARK    2  A    between atoms: N_10  and  C_11 
REMARK    3  A    between atoms: C_11  and  C_12 
REMARK       I    between atoms: C_12  and  N_14 
ROOT
HETATM    1  C   UNK N   1      30.962  16.839   3.782  0.00  0.00     0.001 A 
HETATM    2  C   UNK N   1      32.280  17.163   3.413  0.00  0.00     0.001 A 
HETATM    3  C   UNK N   1      33.235  17.454   4.400  0.00  0.00     0.007 A 
HETATM    4  C   UNK N   1      32.843  17.426   5.738  0.00  0.00    -0.050 A 
HETATM    5  C   UNK N   1      31.562  17.114   6.099  0.00  0.00    -0.050 A 
HETATM    6  C   UNK N   1      30.597  16.808   5.138  0.00  0.00     0.007 A 
HETATM    7  C   UNK N   1      31.364  17.136   7.564  0.00  0.00     0.064 C 
HETATM    8  C   UNK N   1      32.682  17.773   8.052  0.00  0.00     0.085 C 
HETATM    9  C   UNK N   1      33.707  17.700   6.896  0.00  0.00     0.064 C 
ENDROOT
BRANCH   8  10
HETATM   10  N   UNK N   1      33.161  17.151   9.283  0.00  0.00    -0.408 N 
HETATM   11  H   UNK N   1      32.580  16.845  10.064  0.00  0.00     0.154 HD
BRANCH  10  12
HETATM   12  C   UNK N   1      34.615  17.039   9.201  0.00  0.00     0.217 C 
BRANCH  12  13
HETATM   13  C   UNK N   1      35.208  16.378  10.408  0.00  0.00     0.232 C 
HETATM   14  O   UNK N   1      36.377  16.589  10.689  0.00  0.00    -0.272 OA
HETATM   15  N   UNK N   1      34.471  15.565  11.190  0.00  0.00    -0.369 N 
HETATM   16  H   UNK N   1      33.527  15.389  10.977  0.00  0.00     0.159 HD
HETATM   17  H   UNK N   1      34.880  15.145  11.981  0.00  0.00     0.159 HD
ENDBRANCH  12  13
ENDBRANCH  10  12
ENDBRANCH   8  10
TORSDOF 3
ENDMDL
MODEL 2
REMARK VINA RESULT:      -5.7     11.476     13.105
REMARK  3 active torsions:
REMARK  status: ('A' for Active; 'I' for Inactive)
REMARK    1  A    between atoms: C_8  and  N_10 
REMARK    2  A    between atoms: N_10  and  C_11 
REMARK    3  A    between atoms: C_11  and  C_12 
REMARK       I    between atoms: C_12  and  N_14 
ROOT
HETATM    1  C   UNK N   1      23.277  11.867  11.460  0.00  0.00     0.001 A 
HETATM    2  C   UNK N   1      24.345  12.070  10.567  0.00  0.00     0.001 A 
HETATM    3  C   UNK N   1      24.154  12.837   9.407  0.00  0.00     0.007 A 
HETATM    4  C   UNK N   1      22.890  13.373   9.161  0.00  0.00    -0.050 A 
HETATM    5  C   UNK N   1      21.851  13.175  10.026  0.00  0.00    -0.050 A 
HETATM    6  C   UNK N   1      22.018  12.427  11.193  0.00  0.00     0.007 A 
HETATM    7  C   UNK N   1      20.606  13.836   9.579  0.00  0.00     0.064 C 
HETATM    8  C   UNK N   1      20.975  14.269   8.145  0.00  0.00     0.085 C 
HETATM    9  C   UNK N   1      22.514  14.200   8.004  0.00  0.00     0.064 C 
ENDROOT
BRANCH   8  10
HETATM   10  N   UNK N   1      20.428  15.582   7.819  0.00  0.00    -0.408 N 
HETATM   11  H   UNK N   1      20.559  16.083   6.940  0.00  0.00     0.154 HD
BRANCH  10  12
HETATM   12  C   UNK N   1      19.659  16.055   8.968  0.00  0.00     0.217 C 
BRANCH  12  13
HETATM   13  C   UNK N   1      19.350  17.518   8.889  0.00  0.00     0.232 C 
HETATM   14  O   UNK N   1      20.179  18.277   8.413  0.00  0.00    -0.272 OA
HETATM   15  N   UNK N   1      18.171  18.006   9.323  0.00  0.00    -0.369 N 
HETATM   16  H   UNK N   1      17.493  17.404   9.705  0.00  0.00     0.159 HD
HETATM   17  H   UNK N   1      17.987  18.971   9.257  0.00  0.00     0.159 HD
ENDBRANCH  12  13
ENDBRANCH  10  12
ENDBRANCH   8  10
TORSDOF 3
ENDMDL
MODEL 3
REMARK VINA RESULT:      -5.6      5.389      9.419
REMARK  3 active torsions:
REMARK  status: ('A' for Active; 'I' for Inactive)
REMARK    1  A    between atoms: C_8  and  N_10 
REMARK    2  A    between atoms: N_10  and  C_11 
REMARK    3  A    between atoms: C_11  and  C_12 
REMARK       I    between atoms: C_12  and  N_14 
ROOT
HETATM    1  C   UNK N   1      34.184  10.373  15.838  0.00  0.00     0.001 A 
HETATM    2  C   UNK N   1      35.098  10.764  16.834  0.00  0.00     0.001 A 
HETATM    3  C   UNK N   1      35.990  11.819  16.594  0.00  0.00     0.007 A 
HETATM    4  C   UNK N   1      35.957  12.453  15.352  0.00  0.00    -0.050 A 
HETATM    5  C   UNK N   1      35.072  12.074  14.382  0.00  0.00    -0.050 A 
HETATM    6  C   UNK N   1      34.165  11.036  14.600  0.00  0.00     0.007 A 
HETATM    7  C   UNK N   1      35.201  12.881  13.150  0.00  0.00     0.064 C 
HETATM    8  C   UNK N   1      36.502  13.665  13.420  0.00  0.00     0.085 C 
HETATM    9  C   UNK N   1      36.813  13.573  14.932  0.00  0.00     0.064 C 
ENDROOT
BRANCH   8  10
HETATM   10  N   UNK N   1      36.415  15.040  12.935  0.00  0.00    -0.408 N 
HETATM   11  H   UNK N   1      37.005  15.817  13.233  0.00  0.00     0.154 HD
BRANCH  10  12
HETATM   12  C   UNK N   1      35.339  15.109  11.949  0.00  0.00     0.217 C 
BRANCH  12  13
HETATM   13  C   UNK N   1      35.585  16.154  10.905  0.00  0.00     0.232 C 
HETATM   14  O   UNK N   1      36.732  16.406  10.572  0.00  0.00    -0.272 OA
HETATM   15  N   UNK N   1      34.563  16.811  10.322  0.00  0.00    -0.369 N 
HETATM   16  H   UNK N   1      33.633  16.616  10.579  0.00  0.00     0.159 HD
HETATM   17  H   UNK N   1      34.746  17.491   9.634  0.00  0.00     0.159 HD
ENDBRANCH  12  13
ENDBRANCH  10  12
ENDBRANCH   8  10
TORSDOF 3
ENDMDL
MODEL 4
REMARK VINA RESULT:      -5.5     15.769     17.727
REMARK  3 active torsions:
REMARK  status: ('A' for Active; 'I' for Inactive)
REMARK    1  A    between atoms: C_8  and  N_10 
REMARK    2  A    between atoms: N_10  and  C_11 
REMARK    3  A    between atoms: C_11  and  C_12 
REMARK       I    between atoms: C_12  and  N_14 
ROOT
HETATM    1  C   UNK N   1      28.376  30.352  -5.692  0.00  0.00     0.001 A 
HETATM    2  C   UNK N   1      27.643  30.634  -4.525  0.00  0.00     0.001 A 
HETATM    3  C   UNK N   1      26.619  29.768  -4.112  0.00  0.00     0.007 A 
HETATM    4  C   UNK N   1      26.343  28.642  -4.888  0.00  0.00    -0.050 A 
HETATM    5  C   UNK N   1      27.052  28.367  -6.024  0.00  0.00    -0.050 A 
HETATM    6  C   UNK N   1      28.083  29.205  -6.449  0.00  0.00     0.007 A 
HETATM    7  C   UNK N   1      26.601  27.125  -6.687  0.00  0.00     0.064 C 
HETATM    8  C   UNK N   1      25.307  26.803  -5.912  0.00  0.00     0.085 C 
HETATM    9  C   UNK N   1      25.312  27.631  -4.605  0.00  0.00     0.064 C 
ENDROOT
BRANCH   8  10
HETATM   10  N   UNK N   1      25.157  25.370  -5.680  0.00  0.00    -0.408 N 
HETATM   11  H   UNK N   1      24.276  24.876  -5.535  0.00  0.00     0.154 HD
BRANCH  10  12
HETATM   12  C   UNK N   1      26.487  24.763  -5.695  0.00  0.00     0.217 C 
BRANCH  12  13
HETATM   13  C   UNK N   1      26.942  24.345  -4.331  0.00  0.00     0.232 C 
HETATM   14  O   UNK N   1      26.125  24.273  -3.426  0.00  0.00    -0.272 OA
HETATM   15  N   UNK N   1      28.232  24.039  -4.089  0.00  0.00    -0.369 N 
HETATM   16  H   UNK N   1      28.900  24.090  -4.810  0.00  0.00     0.159 HD
HETATM   17  H   UNK N   1      28.508  23.762  -3.186  0.00  0.00     0.159 HD
ENDBRANCH  12  13
ENDBRANCH  10  12
ENDBRANCH   8  10
TORSDOF 3
ENDMDL
MODEL 5
REMARK VINA RESULT:      -5.4      7.912     11.407
REMARK  3 active torsions:
REMARK  status: ('A' for Active; 'I' for Inactive)
REMARK    1  A    between atoms: C_8  and  N_10 
REMARK    2  A    between atoms: N_10  and  C_11 
REMARK    3  A    between atoms: C_11  and  C_12 
REMARK       I    between atoms: C_12  and  N_14 
ROOT
HETATM    1  C   UNK N   1      35.296  12.919  19.513  0.00  0.00     0.001 A 
HETATM    2  C   UNK N   1      35.382  11.521  19.636  0.00  0.00     0.001 A 
HETATM    3  C   UNK N   1      35.335  10.710  18.492  0.00  0.00     0.007 A 
HETATM    4  C   UNK N   1      35.188  11.321  17.246  0.00  0.00    -0.050 A 
HETATM    5  C   UNK N   1      35.102  12.679  17.124  0.00  0.00    -0.050 A 
HETATM    6  C   UNK N   1      35.159  13.508  18.245  0.00  0.00     0.007 A 
HETATM    7  C   UNK N   1      34.959  13.114  15.719  0.00  0.00     0.064 C 
HETATM    8  C   UNK N   1      34.707  11.775  14.996  0.00  0.00     0.085 C 
HETATM    9  C   UNK N   1      35.124  10.630  15.949  0.00  0.00     0.064 C 
ENDROOT
BRANCH   8  10
HETATM   10  N   UNK N   1      35.385  11.720  13.705  0.00  0.00    -0.408 N 
HETATM   11  H   UNK N   1      35.100  11.158  12.902  0.00  0.00     0.154 HD
BRANCH  10  12
HETATM   12  C   UNK N   1      36.543  12.611  13.759  0.00  0.00     0.217 C 
BRANCH  12  13
HETATM   13  C   UNK N   1      36.655  13.480  12.544  0.00  0.00     0.232 C 
HETATM   14  O   UNK N   1      35.814  14.343  12.349  0.00  0.00    -0.272 OA
HETATM   15  N   UNK N   1      37.671  13.331  11.672  0.00  0.00    -0.369 N 
HETATM   16  H   UNK N   1      38.358  12.642  11.819  0.00  0.00     0.159 HD
HETATM   17  H   UNK N   1      37.728  13.916  10.882  0.00  0.00     0.159 HD
ENDBRANCH  12  13
ENDBRANCH  10  12
ENDBRANCH   8  10
TORSDOF 3
ENDMDL
MODEL 6
REMARK VINA RESULT:      -5.4      4.722      8.661
REMARK  3 active torsions:
REMARK  status: ('A' for Active; 'I' for Inactive)
REMARK    1  A    between atoms: C_8  and  N_10 
REMARK    2  A    between atoms: N_10  and  C_11 
REMARK    3  A    between atoms: C_11  and  C_12 
REMARK       I    between atoms: C_12  and  N_14 
ROOT
HETATM    1  C   UNK N   1      35.251  11.075  15.820  0.00  0.00     0.001 A 
HETATM    2  C   UNK N   1      34.433  10.566  14.796  0.00  0.00     0.001 A 
HETATM    3  C   UNK N   1      34.309  11.262  13.584  0.00  0.00     0.007 A 
HETATM    4  C   UNK N   1      35.000  12.464  13.430  0.00  0.00    -0.050 A 
HETATM    5  C   UNK N   1      35.794  12.962  14.425  0.00  0.00    -0.050 A 
HETATM    6  C   UNK N   1      35.944  12.282  15.635  0.00  0.00     0.007 A 
HETATM    7  C   UNK N   1      36.438  14.239  14.051  0.00  0.00     0.064 C 
HETATM    8  C   UNK N   1      35.703  14.593  12.741  0.00  0.00     0.085 C 
HETATM    9  C   UNK N   1      34.988  13.318  12.233  0.00  0.00     0.064 C 
ENDROOT
BRANCH   8  10
HETATM   10  N   UNK N   1      36.607  15.174  11.754  0.00  0.00    -0.408 N 
HETATM   11  H   UNK N   1      37.548  15.526  11.937  0.00  0.00     0.154 HD
BRANCH  10  12
HETATM   12  C   UNK N   1      35.934  15.164  10.457  0.00  0.00     0.217 C 
BRANCH  12  13
HETATM   13  C   UNK N   1      35.149  16.415  10.208  0.00  0.00     0.232 C 
HETATM   14  O   UNK N   1      35.685  17.499  10.379  0.00  0.00    -0.272 OA
HETATM   15  N   UNK N   1      33.869  16.363   9.791  0.00  0.00    -0.369 N 
HETATM   16  H   UNK N   1      33.426  15.497   9.646  0.00  0.00     0.159 HD
HETATM   17  H   UNK N   1      33.372  17.198   9.629  0.00  0.00     0.159 HD
ENDBRANCH  12  13
ENDBRANCH  10  12
ENDBRANCH   8  10
TORSDOF 3
ENDMDL
MODEL 7
REMARK VINA RESULT:      -5.4     17.987     18.659
REMARK  3 active torsions:
REMARK  status: ('A' for Active; 'I' for Inactive)
REMARK    1  A    between atoms: C_8  and  N_10 
REMARK    2  A    between atoms: N_10  and  C_11 
REMARK    3  A    between atoms: C_11  and  C_12 
REMARK       I    between atoms: C_12  and  N_14 
ROOT
HETATM    1  C   UNK N   1      28.211  30.185  -5.495  0.00  0.00     0.001 A 
HETATM    2  C   UNK N   1      27.376  30.313  -4.370  0.00  0.00     0.001 A 
HETATM    3  C   UNK N   1      26.377  29.359  -4.124  0.00  0.00     0.007 A 
HETATM    4  C   UNK N   1      26.227  28.302  -5.020  0.00  0.00    -0.050 A 
HETATM    5  C   UNK N   1      27.036  28.176  -6.115  0.00  0.00    -0.050 A 
HETATM    6  C   UNK N   1      28.045  29.104  -6.376  0.00  0.00     0.007 A 
HETATM    7  C   UNK N   1      26.711  26.983  -6.926  0.00  0.00     0.064 C 
HETATM    8  C   UNK N   1      25.384  26.520  -6.291  0.00  0.00     0.085 C 
HETATM    9  C   UNK N   1      25.241  27.216  -4.917  0.00  0.00     0.064 C 
ENDROOT
BRANCH   8  10
HETATM   10  N   UNK N   1      25.302  25.065  -6.206  0.00  0.00    -0.408 N 
HETATM   11  H   UNK N   1      24.718  24.534  -5.559  0.00  0.00     0.154 HD
BRANCH  10  12
HETATM   12  C   UNK N   1      26.200  24.498  -7.211  0.00  0.00     0.217 C 
BRANCH  12  13
HETATM   13  C   UNK N   1      25.625  23.284  -7.874  0.00  0.00     0.232 C 
HETATM   14  O   UNK N   1      24.644  23.404  -8.590  0.00  0.00    -0.272 OA
HETATM   15  N   UNK N   1      26.179  22.068  -7.701  0.00  0.00    -0.369 N 
HETATM   16  H   UNK N   1      26.972  21.958  -7.129  0.00  0.00     0.159 HD
HETATM   17  H   UNK N   1      25.788  21.284  -8.150  0.00  0.00     0.159 HD
ENDBRANCH  12  13
ENDBRANCH  10  12
ENDBRANCH   8  10
TORSDOF 3
ENDMDL
MODEL 8
REMARK VINA RESULT:      -5.3     12.721     13.829
REMARK  3 active torsions:
REMARK  status: ('A' for Active; 'I' for Inactive)
REMARK    1  A    between atoms: C_8  and  N_10 
REMARK    2  A    between atoms: N_10  and  C_11 
REMARK    3  A    between atoms: C_11  and  C_12 
REMARK       I    between atoms: C_12  and  N_14 
ROOT
HETATM    1  C   UNK N   1      45.336  18.075   2.955  0.00  0.00     0.001 A 
HETATM    2  C   UNK N   1      43.976  17.900   2.640  0.00  0.00     0.001 A 
HETATM    3  C   UNK N   1      43.085  18.978   2.749  0.00  0.00     0.007 A 
HETATM    4  C   UNK N   1      43.575  20.209   3.184  0.00  0.00    -0.050 A 
HETATM    5  C   UNK N   1      44.896  20.382   3.493  0.00  0.00    -0.050 A 
HETATM    6  C   UNK N   1      45.805  19.328   3.382  0.00  0.00     0.007 A 
HETATM    7  C   UNK N   1      45.202  21.762   3.925  0.00  0.00     0.064 C 
HETATM    8  C   UNK N   1      43.791  22.364   4.085  0.00  0.00     0.085 C 
HETATM    9  C   UNK N   1      42.789  21.441   3.352  0.00  0.00     0.064 C 
ENDROOT
BRANCH   8  10
HETATM   10  N   UNK N   1      43.737  23.748   3.624  0.00  0.00    -0.408 N 
HETATM   11  H   UNK N   1      43.331  24.533   4.133  0.00  0.00     0.154 HD
BRANCH  10  12
HETATM   12  C   UNK N   1      44.367  23.814   2.307  0.00  0.00     0.217 C 
BRANCH  12  13
HETATM   13  C   UNK N   1      45.341  24.947   2.193  0.00  0.00     0.232 C 
HETATM   14  O   UNK N   1      46.422  24.861   2.753  0.00  0.00    -0.272 OA
HETATM   15  N   UNK N   1      45.047  26.050   1.477  0.00  0.00    -0.369 N 
HETATM   16  H   UNK N   1      44.180  26.130   1.017  0.00  0.00     0.159 HD
HETATM   17  H   UNK N   1      45.704  26.780   1.411  0.00  0.00     0.159 HD
ENDBRANCH  12  13
ENDBRANCH  10  12
ENDBRANCH   8  10
TORSDOF 3
ENDMDL
MODEL 9
REMARK VINA RESULT:      -5.3     11.648     13.498
REMARK  3 active torsions:
REMARK  status: ('A' for Active; 'I' for Inactive)
REMARK    1  A    between atoms: C_8  and  N_10 
REMARK    2  A    between atoms: N_10  and  C_11 
REMARK    3  A    between atoms: C_11  and  C_12 
REMARK       I    between atoms: C_12  and  N_14 
ROOT
HETATM    1  C   UNK N   1      24.448  12.222  10.577  0.00  0.00     0.001 A 
HETATM    2  C   UNK N   1      23.344  12.005  11.421  0.00  0.00     0.001 A 
HETATM    3  C   UNK N   1      22.075  12.476  11.051  0.00  0.00     0.007 A 
HETATM    4  C   UNK N   1      21.943  13.168   9.847  0.00  0.00    -0.050 A 
HETATM    5  C   UNK N   1      23.015  13.382   9.027  0.00  0.00    -0.050 A 
HETATM    6  C   UNK N   1      24.286  12.913   9.365  0.00  0.00     0.007 A 
HETATM    7  C   UNK N   1      22.653  14.127   7.802  0.00  0.00     0.064 C 
HETATM    8  C   UNK N   1      21.211  14.574   8.118  0.00  0.00     0.085 C 
HETATM    9  C   UNK N   1      20.695  13.726   9.305  0.00  0.00     0.064 C 
ENDROOT
BRANCH   8  10
HETATM   10  N   UNK N   1      20.350  14.495   6.941  0.00  0.00    -0.408 N 
HETATM   11  H   UNK N   1      19.999  13.639   6.513  0.00  0.00     0.154 HD
BRANCH  10  12
HETATM   12  C   UNK N   1      20.076  15.856   6.485  0.00  0.00     0.217 C 
BRANCH  12  13
HETATM   13  C   UNK N   1      18.952  15.915   5.498  0.00  0.00     0.232 C 
HETATM   14  O   UNK N   1      17.802  15.839   5.900  0.00  0.00    -0.272 OA
HETATM   15  N   UNK N   1      19.189  16.059   4.179  0.00  0.00    -0.369 N 
HETATM   16  H   UNK N   1      20.111  16.126   3.842  0.00  0.00     0.159 HD
HETATM   17  H   UNK N   1      18.434  16.100   3.548  0.00  0.00     0.159 HD
ENDBRANCH  12  13
ENDBRANCH  10  12
ENDBRANCH   8  10
TORSDOF 3
ENDMDL
