MODEL 1
REMARK VINA RESULT:      -4.2      0.000      0.000
REMARK  2 active torsions:
REMARK  status: ('A' for Active; 'I' for Inactive)
REMARK    1  A    between atoms: C_4  and  C_3 
REMARK    2  A    between atoms: O_7  and  C_4 
ROOT
HETATM    1  C   UNK N   1      34.062  15.719   8.709  0.00  0.00     0.111 A 
HETATM    2  C   UNK N   1      34.988  15.911  11.170  0.00  0.00     0.189 A 
HETATM    3  C   UNK N   1      34.611  17.056   9.126  0.00  0.00     0.185 A 
HETATM    4  N   UNK N   1      35.125  17.186  10.475  0.00  0.00    -0.400 N 
HETATM    5  S   UNK N   1      34.232  14.620  10.126  0.00  0.00    -0.147 SA
HETATM    6  H   UNK N   1      35.522  18.036  10.876  0.00  0.00     0.154 HD
ENDROOT
BRANCH   3   7
HETATM    7  C   UNK N   1      34.653  18.248   8.231  0.00  0.00     0.163 C 
HETATM    8  O   UNK N   1      34.050  18.236   7.168  0.00  0.00    -0.648 OA
BRANCH   7   9
HETATM    9  O   UNK N   1      35.353  19.340   8.588  0.00  0.00    -0.775 OA
HETATM   10  H   UNK N   1      34.921  20.167   8.674  0.00  0.00     0.167 HD
ENDBRANCH   7   9
ENDBRANCH   3   7
TORSDOF 2
ENDMDL
MODEL 2
REMARK VINA RESULT:      -4.1     15.749     16.143
REMARK  2 active torsions:
REMARK  status: ('A' for Active; 'I' for Inactive)
REMARK    1  A    between atoms: C_4  and  C_3 
REMARK    2  A    between atoms: O_7  and  C_4 
ROOT
HETATM    1  C   UNK N   1      20.634  18.952   3.233  0.00  0.00     0.111 A 
HETATM    2  C   UNK N   1      19.945  17.006   1.593  0.00  0.00     0.189 A 
HETATM    3  C   UNK N   1      20.593  19.283   1.767  0.00  0.00     0.185 A 
HETATM    4  N   UNK N   1      20.217  18.228   0.845  0.00  0.00    -0.400 N 
HETATM    5  S   UNK N   1      20.167  17.219   3.391  0.00  0.00    -0.147 SA
HETATM    6  H   UNK N   1      20.152  18.325  -0.169  0.00  0.00     0.154 HD
ENDROOT
BRANCH   3   7
HETATM    7  C   UNK N   1      20.917  20.629   1.213  0.00  0.00     0.163 C 
HETATM    8  O   UNK N   1      21.111  20.765   0.014  0.00  0.00    -0.648 OA
BRANCH   7   9
HETATM    9  O   UNK N   1      20.996  21.696   2.028  0.00  0.00    -0.775 OA
HETATM   10  H   UNK N   1      21.038  21.575   2.956  0.00  0.00     0.167 HD
ENDBRANCH   7   9
ENDBRANCH   3   7
TORSDOF 2
ENDMDL
MODEL 3
REMARK VINA RESULT:      -4.0     12.154     12.746
REMARK  2 active torsions:
REMARK  status: ('A' for Active; 'I' for Inactive)
REMARK    1  A    between atoms: C_4  and  C_3 
REMARK    2  A    between atoms: O_7  and  C_4 
ROOT
HETATM    1  C   UNK N   1      22.471  12.388  10.479  0.00  0.00     0.111 A 
HETATM    2  C   UNK N   1      24.942  12.974   9.772  0.00  0.00     0.189 A 
HETATM    3  C   UNK N   1      23.524  12.285  11.547  0.00  0.00     0.185 A 
HETATM    4  N   UNK N   1      24.892  12.603  11.181  0.00  0.00    -0.400 N 
HETATM    5  S   UNK N   1      23.304  12.913   8.970  0.00  0.00    -0.147 SA
HETATM    6  H   UNK N   1      25.694  12.572  11.812  0.00  0.00     0.154 HD
ENDROOT
BRANCH   3   7
HETATM    7  C   UNK N   1      23.241  11.877  12.953  0.00  0.00     0.163 C 
HETATM    8  O   UNK N   1      23.949  12.284  13.861  0.00  0.00    -0.648 OA
BRANCH   7   9
HETATM    9  O   UNK N   1      22.208  11.061  13.226  0.00  0.00    -0.775 OA
HETATM   10  H   UNK N   1      22.312  10.132  13.156  0.00  0.00     0.167 HD
ENDBRANCH   7   9
ENDBRANCH   3   7
TORSDOF 2
ENDMDL
MODEL 4
REMARK VINA RESULT:      -3.9     15.218     15.709
REMARK  2 active torsions:
REMARK  status: ('A' for Active; 'I' for Inactive)
REMARK    1  A    between atoms: C_4  and  C_3 
REMARK    2  A    between atoms: O_7  and  C_4 
ROOT
HETATM    1  C   UNK N   1      19.947  18.014   2.101  0.00  0.00     0.111 A 
HETATM    2  C   UNK N   1      21.046  18.389   4.468  0.00  0.00     0.189 A 
HETATM    3  C   UNK N   1      20.702  19.299   2.304  0.00  0.00     0.185 A 
HETATM    4  N   UNK N   1      21.315  19.527   3.598  0.00  0.00    -0.400 N 
HETATM    5  S   UNK N   1      20.052  17.097   3.648  0.00  0.00    -0.147 SA
HETATM    6  H   UNK N   1      21.851  20.355   3.859  0.00  0.00     0.154 HD
ENDROOT
BRANCH   3   7
HETATM    7  C   UNK N   1      20.852  20.345   1.251  0.00  0.00     0.163 C 
HETATM    8  O   UNK N   1      21.165  21.484   1.563  0.00  0.00    -0.648 OA
BRANCH   7   9
HETATM    9  O   UNK N   1      20.645  20.040  -0.042  0.00  0.00    -0.775 OA
HETATM   10  H   UNK N   1      21.371  19.980  -0.632  0.00  0.00     0.167 HD
ENDBRANCH   7   9
ENDBRANCH   3   7
TORSDOF 2
ENDMDL
MODEL 5
REMARK VINA RESULT:      -3.6      3.113      3.708
REMARK  2 active torsions:
REMARK  status: ('A' for Active; 'I' for Inactive)
REMARK    1  A    between atoms: C_4  and  C_3 
REMARK    2  A    between atoms: O_7  and  C_4 
ROOT
HETATM    1  C   UNK N   1      32.112  17.436   7.789  0.00  0.00     0.111 A 
HETATM    2  C   UNK N   1      32.875  17.285   5.269  0.00  0.00     0.189 A 
HETATM    3  C   UNK N   1      33.557  17.737   7.497  0.00  0.00     0.185 A 
HETATM    4  N   UNK N   1      34.000  17.661   6.118  0.00  0.00    -0.400 N 
HETATM    5  S   UNK N   1      31.332  17.045   6.212  0.00  0.00    -0.147 SA
HETATM    6  H   UNK N   1      34.950  17.841   5.793  0.00  0.00     0.154 HD
ENDROOT
BRANCH   3   7
HETATM    7  C   UNK N   1      34.552  18.109   8.544  0.00  0.00     0.163 C 
HETATM    8  O   UNK N   1      34.672  17.418   9.545  0.00  0.00    -0.648 OA
BRANCH   7   9
HETATM    9  O   UNK N   1      35.320  19.202   8.392  0.00  0.00    -0.775 OA
HETATM   10  H   UNK N   1      35.102  19.995   8.843  0.00  0.00     0.167 HD
ENDBRANCH   7   9
ENDBRANCH   3   7
TORSDOF 2
ENDMDL
MODEL 6
REMARK VINA RESULT:      -3.6      2.947      3.395
REMARK  2 active torsions:
REMARK  status: ('A' for Active; 'I' for Inactive)
REMARK    1  A    between atoms: C_4  and  C_3 
REMARK    2  A    between atoms: O_7  and  C_4 
ROOT
HETATM    1  C   UNK N   1      33.113  17.320   6.458  0.00  0.00     0.111 A 
HETATM    2  C   UNK N   1      30.914  17.352   7.913  0.00  0.00     0.189 A 
HETATM    3  C   UNK N   1      33.260  17.711   7.902  0.00  0.00     0.185 A 
HETATM    4  N   UNK N   1      32.065  17.736   8.723  0.00  0.00    -0.400 N 
HETATM    5  S   UNK N   1      31.365  16.980   6.184  0.00  0.00    -0.147 SA
HETATM    6  H   UNK N   1      32.032  17.984   9.712  0.00  0.00     0.154 HD
ENDROOT
BRANCH   3   7
HETATM    7  C   UNK N   1      34.563  18.073   8.533  0.00  0.00     0.163 C 
HETATM    8  O   UNK N   1      35.040  19.184   8.353  0.00  0.00    -0.648 OA
BRANCH   7   9
HETATM    9  O   UNK N   1      35.215  17.182   9.300  0.00  0.00    -0.775 OA
HETATM   10  H   UNK N   1      34.837  16.340   9.466  0.00  0.00     0.167 HD
ENDBRANCH   7   9
ENDBRANCH   3   7
TORSDOF 2
ENDMDL
MODEL 7
REMARK VINA RESULT:      -3.6      3.888      4.513
REMARK  2 active torsions:
REMARK  status: ('A' for Active; 'I' for Inactive)
REMARK    1  A    between atoms: C_4  and  C_3 
REMARK    2  A    between atoms: O_7  and  C_4 
ROOT
HETATM    1  C   UNK N   1      35.456  13.259  12.506  0.00  0.00     0.111 A 
HETATM    2  C   UNK N   1      36.636  13.900  14.775  0.00  0.00     0.189 A 
HETATM    3  C   UNK N   1      36.037  14.643  12.601  0.00  0.00     0.185 A 
HETATM    4  N   UNK N   1      36.691  15.018  13.840  0.00  0.00    -0.400 N 
HETATM    5  S   UNK N   1      35.782  12.445  14.080  0.00  0.00    -0.147 SA
HETATM    6  H   UNK N   1      37.123  15.923  14.029  0.00  0.00     0.154 HD
ENDROOT
BRANCH   3   7
HETATM    7  C   UNK N   1      35.977  15.643  11.497  0.00  0.00     0.163 C 
HETATM    8  O   UNK N   1      34.902  16.117  11.161  0.00  0.00    -0.648 OA
BRANCH   7   9
HETATM    9  O   UNK N   1      37.102  16.028  10.869  0.00  0.00    -0.775 OA
HETATM   10  H   UNK N   1      37.055  16.617  10.141  0.00  0.00     0.167 HD
ENDBRANCH   7   9
ENDBRANCH   3   7
TORSDOF 2
ENDMDL
MODEL 8
REMARK VINA RESULT:      -3.6     12.660     13.235
REMARK  2 active torsions:
REMARK  status: ('A' for Active; 'I' for Inactive)
REMARK    1  A    between atoms: C_4  and  C_3 
REMARK    2  A    between atoms: O_7  and  C_4 
ROOT
HETATM    1  C   UNK N   1      22.749  13.141   8.817  0.00  0.00     0.111 A 
HETATM    2  C   UNK N   1      24.812  12.652  10.385  0.00  0.00     0.189 A 
HETATM    3  C   UNK N   1      22.445  12.738  10.233  0.00  0.00     0.185 A 
HETATM    4  N   UNK N   1      23.563  12.463  11.115  0.00  0.00    -0.400 N 
HETATM    5  S   UNK N   1      24.544  13.157   8.653  0.00  0.00    -0.147 SA
HETATM    6  H   UNK N   1      23.489  12.182  12.093  0.00  0.00     0.154 HD
ENDROOT
BRANCH   3   7
HETATM    7  C   UNK N   1      21.062  12.606  10.777  0.00  0.00     0.163 C 
HETATM    8  O   UNK N   1      20.142  13.221  10.260  0.00  0.00    -0.648 OA
BRANCH   7   9
HETATM    9  O   UNK N   1      20.823  11.811  11.835  0.00  0.00    -0.775 OA
HETATM   10  H   UNK N   1      20.775  10.882  11.723  0.00  0.00     0.167 HD
ENDBRANCH   7   9
ENDBRANCH   3   7
TORSDOF 2
ENDMDL
MODEL 9
REMARK VINA RESULT:      -3.4     11.441     11.923
REMARK  2 active torsions:
REMARK  status: ('A' for Active; 'I' for Inactive)
REMARK    1  A    between atoms: C_4  and  C_3 
REMARK    2  A    between atoms: O_7  and  C_4 
ROOT
HETATM    1  C   UNK N   1      43.078  20.262   3.222  0.00  0.00     0.111 A 
HETATM    2  C   UNK N   1      45.618  19.564   3.120  0.00  0.00     0.189 A 
HETATM    3  C   UNK N   1      44.077  21.261   3.736  0.00  0.00     0.185 A 
HETATM    4  N   UNK N   1      45.481  20.900   3.691  0.00  0.00    -0.400 N 
HETATM    5  S   UNK N   1      44.013  18.824   2.670  0.00  0.00    -0.147 SA
HETATM    6  H   UNK N   1      46.252  21.487   4.008  0.00  0.00     0.154 HD
ENDROOT
BRANCH   3   7
HETATM    7  C   UNK N   1      43.704  22.595   4.288  0.00  0.00     0.163 C 
HETATM    8  O   UNK N   1      43.867  22.832   5.475  0.00  0.00    -0.648 OA
BRANCH   7   9
HETATM    9  O   UNK N   1      43.188  23.541   3.483  0.00  0.00    -0.775 OA
HETATM   10  H   UNK N   1      43.497  23.627   2.602  0.00  0.00     0.167 HD
ENDBRANCH   7   9
ENDBRANCH   3   7
TORSDOF 2
ENDMDL
