REMARK  5 active torsions:
REMARK  status: ('A' for Active; 'I' for Inactive)
REMARK    1  A    between atoms: C_2  and  C_3 
REMARK    2  A    between atoms: C_3  and  C_4 
REMARK    3  A    between atoms: C_4  and  O_5 
REMARK    4  A    between atoms: O_5  and  C_6 
REMARK    5  A    between atoms: C_6  and  C_8 
ROOT
HETATM    1  C   UNK N   1       8.065  -2.938   0.000  0.00  0.00     0.110 C 
HETATM    2  C   UNK N   1       8.106  -4.270   0.000  0.00  0.00     0.042 C 
HETATM    3  C   UNK N   1       9.280  -2.170  -0.000  0.00  0.00     0.105 C 
HETATM    4  N   UNK N   1      10.227  -1.507  -0.000  0.00  0.00    -0.191 NA
ENDROOT
BRANCH   1   5
HETATM    5  C   UNK N   1       6.790  -2.214   0.000  0.00  0.00     0.303 C 
HETATM    6  O   UNK N   1       6.797  -0.988   0.000  0.00  0.00    -0.259 OA
BRANCH   5   7
HETATM    7  O   UNK N   1       5.619  -2.885   0.000  0.00  0.00    -0.317 OA
BRANCH   7   8
HETATM    8  C   UNK N   1       4.448  -2.181  -0.000  0.00  0.00     0.179 C 
BRANCH   8   9
HETATM    9  C   UNK N   1       3.267  -3.094  -0.000  0.00  0.00     0.026 C 
BRANCH   9  10
HETATM   10  C   UNK N   1       2.072  -2.179   0.000  0.00  0.00    -0.002 C 
HETATM   11  C   UNK N   1       0.812  -2.999   0.000  0.00  0.00     0.005 C 
ENDBRANCH   9  10
ENDBRANCH   8   9
ENDBRANCH   7   8
ENDBRANCH   5   7
ENDBRANCH   1   5
TORSDOF 5
