REMARK  18 active torsions:
REMARK  status: ('A' for Active; 'I' for Inactive)
REMARK    1  A    between atoms: C_4  and  O_62 
REMARK    2  A    between atoms: C_8  and  O_57 
REMARK    3  A    between atoms: C_11  and  O_53 
REMARK    4  A    between atoms: C_13  and  O_42 
REMARK    5  A    between atoms: C_19  and  O_20 
REMARK    6  A    between atoms: O_20  and  C_21 
REMARK    7  A    between atoms: C_21  and  C_23 
REMARK    8  A    between atoms: C_23  and  C_24 
REMARK    9  A    between atoms: C_23  and  O_40 
REMARK   10  A    between atoms: C_24  and  C_25 
REMARK   11  A    between atoms: C_24  and  N_31 
REMARK       I    between atoms: N_31  and  C_32 
REMARK   12  A    between atoms: C_32  and  C_34 
REMARK   13  A    between atoms: O_42  and  C_43 
REMARK   14  A    between atoms: C_43  and  C_45 
REMARK   15  A    between atoms: O_53  and  C_54 
REMARK   16  A    between atoms: O_57  and  C_58 
REMARK   17  A    between atoms: C_58  and  S_59 
REMARK   18  A    between atoms: O_62  and  C_63 
ROOT
HETATM    1  C   UNK N   1      -1.876  -1.438   1.133  0.00  0.00     0.046 C 
HETATM    2  C   UNK N   1      -1.083  -0.969  -0.049  0.00  0.00    -0.048 C 
HETATM    3  C   UNK N   1       0.052  -1.623  -0.464  0.00  0.00    -0.028 C 
HETATM    4  C   UNK N   1       0.691  -2.707   0.370  0.00  0.00     0.232 C 
HETATM    5  C   UNK N   1       2.253  -2.696   0.308  0.00  0.00     0.171 C 
HETATM    6  O   UNK N   1       2.743  -3.694  -0.194  0.00  0.00    -0.294 OA
HETATM    7  C   UNK N   1       3.258  -1.550   0.805  0.00  0.00     0.055 C 
HETATM    8  C   UNK N   1       4.596  -2.305   1.115  0.00  0.00     0.141 C 
HETATM    9  C   UNK N   1       5.662  -1.414   1.719  0.00  0.00     0.068 C 
HETATM   10  C   UNK N   1       6.160  -0.387   0.721  0.00  0.00     0.161 A 
HETATM   11  C   UNK N   1       5.097   0.363  -0.034  0.00  0.00     0.125 A 
HETATM   12  C   UNK N   1       3.619  -0.186  -0.078  0.00  0.00     0.076 C 
HETATM   13  C   UNK N   1       2.618   0.779  -0.920  0.00  0.00     0.176 C 
HETATM   14  C   UNK N   1       1.165   0.419  -0.703  0.00  0.00     0.098 C 
HETATM   15  C   UNK N   1       0.874  -0.917  -1.507  0.00  0.00     0.013 C 
HETATM   16  C   UNK N   1       2.072  -1.661  -2.120  0.00  0.00     0.023 C 
HETATM   17  C   UNK N   1       0.082  -0.742  -2.817  0.00  0.00     0.023 C 
HETATM   18  C   UNK N   1      -0.077   1.300  -0.968  0.00  0.00     0.078 C 
HETATM   19  C   UNK N   1      -1.371   0.398  -0.717  0.00  0.00     0.164 C 
HETATM   20  O   UNK N   1       1.112   0.317   0.700  0.00  0.00    -0.386 OA
HETATM   21  C   UNK N   1       5.865  -0.145  -1.238  0.00  0.00     0.210 A 
HETATM   22  O   UNK N   1       6.742  -0.909  -0.445  0.00  0.00    -0.380 OA
HETATM   23  C   UNK N   1       2.778  -1.119   2.188  0.00  0.00     0.027 C 
HETATM   24  H   UNK N   1       1.032   0.313   1.666  0.00  0.00     0.210 HD
ENDROOT
BRANCH  13  25
HETATM   25  O   UNK N   1       2.860   2.144  -0.830  0.00  0.00    -0.308 OA
BRANCH  25  26
HETATM   26  C   UNK N   1       2.768   2.949   0.265  0.00  0.00     0.293 C 
HETATM   27  O   UNK N   1       2.442   2.497   1.353  0.00  0.00    -0.259 OA
BRANCH  26  28
HETATM   28  C   UNK N   1       3.159   4.369   0.139  0.00  0.00     0.039 A 
HETATM   29  C   UNK N   1       3.232   5.200   1.268  0.00  0.00     0.017 A 
HETATM   30  C   UNK N   1       3.625   6.536   1.135  0.00  0.00     0.001 A 
HETATM   31  C   UNK N   1       3.952   7.048  -0.124  0.00  0.00     0.000 A 
HETATM   32  C   UNK N   1       3.888   6.226  -1.252  0.00  0.00     0.001 A 
HETATM   33  C   UNK N   1       3.495   4.891  -1.121  0.00  0.00     0.017 A 
ENDBRANCH  26  28
ENDBRANCH  25  26
ENDBRANCH  13  25
BRANCH  19  34
HETATM   34  O   UNK N   1      -2.432   1.116  -0.218  0.00  0.00    -0.309 OA
BRANCH  34  35
HETATM   35  C   UNK N   1      -2.359   1.908   0.879  0.00  0.00     0.290 C 
HETATM   36  O   UNK N   1      -1.509   1.727   1.739  0.00  0.00    -0.262 OA
BRANCH  35  37
HETATM   37  C   UNK N   1      -3.259   3.092   0.949  0.00  0.00     0.244 C 
BRANCH  37  38
HETATM   38  C   UNK N   1      -3.032   3.906  -0.341  0.00  0.00     0.156 C 
BRANCH  38  39
HETATM   39  C   UNK N   1      -1.696   4.602  -0.450  0.00  0.00    -0.033 A 
HETATM   40  C   UNK N   1      -0.897   4.812   0.684  0.00  0.00     0.009 A 
HETATM   41  C   UNK N   1       0.247   5.600   0.595  0.00  0.00     0.001 A 
HETATM   42  C   UNK N   1       0.610   6.173  -0.626  0.00  0.00     0.000 A 
HETATM   43  C   UNK N   1      -0.163   5.946  -1.764  0.00  0.00     0.001 A 
HETATM   44  C   UNK N   1      -1.323   5.175  -1.673  0.00  0.00     0.009 A 
ENDBRANCH  38  39
BRANCH  38  45
HETATM   45  N   UNK N   1      -4.099   4.864  -0.546  0.00  0.00    -0.345 N 
HETATM   46  C   UNK N   1      -4.232   6.009   0.171  0.00  0.00     0.252 C 
HETATM   47  O   UNK N   1      -3.402   6.310   1.024  0.00  0.00    -0.268 OA
HETATM   48  H   UNK N   1      -4.766   4.674  -1.245  0.00  0.00     0.163 HD
BRANCH  46  49
HETATM   49  C   UNK N   1      -5.371   6.901  -0.071  0.00  0.00     0.032 A 
HETATM   50  C   UNK N   1      -6.381   6.526  -0.971  0.00  0.00     0.017 A 
HETATM   51  C   UNK N   1      -7.479   7.363  -1.179  0.00  0.00     0.001 A 
HETATM   52  C   UNK N   1      -7.570   8.579  -0.497  0.00  0.00     0.000 A 
HETATM   53  C   UNK N   1      -6.563   8.960   0.394  0.00  0.00     0.001 A 
HETATM   54  C   UNK N   1      -5.469   8.121   0.609  0.00  0.00     0.017 A 
ENDBRANCH  46  49
ENDBRANCH  38  45
ENDBRANCH  37  38
BRANCH  37  55
HETATM   55  O   UNK N   1      -4.580   2.642   0.999  0.00  0.00    -0.383 OA
HETATM   56  H   UNK N   1      -5.309   3.280   1.033  0.00  0.00     0.210 HD
ENDBRANCH  37  55
ENDBRANCH  35  37
ENDBRANCH  34  35
ENDBRANCH  19  34
BRANCH  11  57
HETATM   57  O   UNK N   1       5.256   1.699   0.315  0.00  0.00    -0.305 OA
BRANCH  57  58
HETATM   58  C   UNK N   1       5.873   2.680  -0.403  0.00  0.00     0.255 C 
HETATM   59  O   UNK N   1       6.079   2.558  -1.600  0.00  0.00    -0.266 OA
HETATM   60  C   UNK N   1       6.296   3.931   0.289  0.00  0.00     0.126 C 
ENDBRANCH  57  58
ENDBRANCH  11  57
BRANCH   4  61
HETATM   61  O   UNK N   1       0.133  -3.904  -0.060  0.00  0.00    -0.304 OA
BRANCH  61  62
HETATM   62  C   UNK N   1       0.350  -5.132   0.477  0.00  0.00     0.255 C 
HETATM   63  O   UNK N   1       1.174  -5.301   1.363  0.00  0.00    -0.266 OA
HETATM   64  C   UNK N   1      -0.425  -6.296  -0.037  0.00  0.00     0.126 C 
ENDBRANCH  61  62
ENDBRANCH   4  61
BRANCH   8  65
HETATM   65  O   UNK N   1       5.137  -3.016   0.027  0.00  0.00    -0.375 OA
BRANCH  65  66
HETATM   66  C   UNK N   1       5.609  -4.216   0.581  0.00  0.00     0.241 C 
BRANCH  66  67
HETATM   67  S   UNK N   1       4.936  -5.655  -0.306  0.00  0.00    -0.148 SA
HETATM   68  C   UNK N   1       6.512  -5.980  -1.138  0.00  0.00     0.092 C 
ENDBRANCH  66  67
ENDBRANCH  65  66
ENDBRANCH   8  65
TORSDOF 18
