MODEL 1
REMARK VINA RESULT:      -4.7      0.000      0.000
REMARK  1 active torsions:
REMARK  status: ('A' for Active; 'I' for Inactive)
REMARK    1  A    between atoms: C_7  and  C_6 
ROOT
HETATM    1  C   UNK N   1      34.878  16.767   9.240  0.00  0.00     0.104 A 
HETATM    2  C   UNK N   1      33.853  15.865   9.525  0.00  0.00     0.105 A 
HETATM    3  C   UNK N   1      33.303  18.273   8.332  0.00  0.00     0.118 A 
HETATM    4  C   UNK N   1      32.268  17.375   8.613  0.00  0.00     0.066 A 
HETATM    5  N   UNK N   1      34.584  17.953   8.649  0.00  0.00    -0.372 N 
ATOM      6  HN  UNK N   1      35.334  18.611   8.441  1.00  0.00     0.164 HD
HETATM    7  N   UNK N   1      32.571  16.188   9.206  0.00  0.00    -0.362 N 
ATOM      8  HN  UNK N   1      31.822  15.527   9.414  1.00  0.00     0.165 HD
ENDROOT
BRANCH   4   9
HETATM    9  C   UNK N   1      30.860  17.693   8.279  0.00  0.00     0.048 A 
HETATM   10  C   UNK N   1      30.153  17.307   7.075  0.00  0.00    -0.013 A 
HETATM   11  C   UNK N   1      30.809  16.504   5.990  0.00  0.00     0.052 C 
HETATM   12  C   UNK N   1      28.779  17.727   6.956  0.00  0.00     0.086 A 
HETATM   13  S   UNK N   1      27.932  17.434   5.836  0.00  0.00    -0.071 SA
HETATM   14  S   UNK N   1      28.245  18.615   8.284  0.00  0.00    -0.040 SA
HETATM   15  S   UNK N   1      29.875  18.593   9.328  0.00  0.00    -0.049 SA
ENDBRANCH   4   9
TORSDOF 1
ENDMDL
MODEL 2
REMARK VINA RESULT:      -4.5      9.995     10.950
REMARK  1 active torsions:
REMARK  status: ('A' for Active; 'I' for Inactive)
REMARK    1  A    between atoms: C_7  and  C_6 
ROOT
HETATM    1  C   UNK N   1      23.367  11.884  11.845  0.00  0.00     0.104 A 
HETATM    2  C   UNK N   1      24.138  12.258  10.744  0.00  0.00     0.105 A 
HETATM    3  C   UNK N   1      21.399  12.274  10.600  0.00  0.00     0.118 A 
HETATM    4  C   UNK N   1      22.164  12.651   9.490  0.00  0.00     0.066 A 
HETATM    5  N   UNK N   1      22.013  11.899  11.752  0.00  0.00    -0.372 N 
ATOM      6  HN  UNK N   1      21.450  11.626  12.556  1.00  0.00     0.164 HD
HETATM    7  N   UNK N   1      23.521  12.633   9.592  0.00  0.00    -0.362 N 
ATOM      8  HN  UNK N   1      24.087  12.907   8.788  1.00  0.00     0.165 HD
ENDROOT
BRANCH   4   9
HETATM    9  C   UNK N   1      21.526  13.066   8.219  0.00  0.00     0.048 A 
HETATM   10  C   UNK N   1      20.926  14.355   7.939  0.00  0.00    -0.013 A 
HETATM   11  C   UNK N   1      20.890  15.454   8.959  0.00  0.00     0.052 C 
HETATM   12  C   UNK N   1      20.359  14.543   6.627  0.00  0.00     0.086 A 
HETATM   13  S   UNK N   1      19.727  15.751   6.179  0.00  0.00    -0.071 SA
HETATM   14  S   UNK N   1      20.508  13.184   5.643  0.00  0.00    -0.040 SA
HETATM   15  S   UNK N   1      21.424  12.018   6.888  0.00  0.00    -0.049 SA
ENDBRANCH   4   9
TORSDOF 1
ENDMDL
MODEL 3
REMARK VINA RESULT:      -4.5      9.885     10.942
REMARK  1 active torsions:
REMARK  status: ('A' for Active; 'I' for Inactive)
REMARK    1  A    between atoms: C_7  and  C_6 
ROOT
HETATM    1  C   UNK N   1      23.045  11.871  11.635  0.00  0.00     0.104 A 
HETATM    2  C   UNK N   1      23.806  12.512  10.656  0.00  0.00     0.105 A 
HETATM    3  C   UNK N   1      21.067  12.627  10.592  0.00  0.00     0.118 A 
HETATM    4  C   UNK N   1      21.821  13.273   9.607  0.00  0.00     0.066 A 
HETATM    5  N   UNK N   1      21.691  11.941  11.584  0.00  0.00    -0.372 N 
ATOM      6  HN  UNK N   1      21.136  11.472  12.299  1.00  0.00     0.164 HD
HETATM    7  N   UNK N   1      23.179  13.199   9.664  0.00  0.00    -0.362 N 
ATOM      8  HN  UNK N   1      23.737  13.667   8.950  1.00  0.00     0.165 HD
ENDROOT
BRANCH   4   9
HETATM    9  C   UNK N   1      21.171  14.030   8.512  0.00  0.00     0.048 A 
HETATM   10  C   UNK N   1      20.878  13.537   7.181  0.00  0.00    -0.013 A 
HETATM   11  C   UNK N   1      21.222  12.139   6.757  0.00  0.00     0.052 C 
HETATM   12  C   UNK N   1      20.237  14.450   6.268  0.00  0.00     0.086 A 
HETATM   13  S   UNK N   1      19.876  14.131   4.917  0.00  0.00    -0.071 SA
HETATM   14  S   UNK N   1      19.943  15.963   6.948  0.00  0.00    -0.040 SA
HETATM   15  S   UNK N   1      20.675  15.641   8.711  0.00  0.00    -0.049 SA
ENDBRANCH   4   9
TORSDOF 1
ENDMDL
MODEL 4
REMARK VINA RESULT:      -4.5      8.580     10.645
REMARK  1 active torsions:
REMARK  status: ('A' for Active; 'I' for Inactive)
REMARK    1  A    between atoms: C_7  and  C_6 
ROOT
HETATM    1  C   UNK N   1      35.663  14.777  12.175  0.00  0.00     0.104 A 
HETATM    2  C   UNK N   1      34.983  13.560  12.129  0.00  0.00     0.105 A 
HETATM    3  C   UNK N   1      36.590  14.179  14.262  0.00  0.00     0.118 A 
HETATM    4  C   UNK N   1      35.912  12.956  14.225  0.00  0.00     0.066 A 
HETATM    5  N   UNK N   1      36.453  15.063  13.241  0.00  0.00    -0.372 N 
ATOM      6  HN  UNK N   1      36.950  15.953  13.274  1.00  0.00     0.164 HD
HETATM    7  N   UNK N   1      35.121  12.676  13.153  0.00  0.00    -0.362 N 
ATOM      8  HN  UNK N   1      34.624  11.787  13.117  1.00  0.00     0.165 HD
ENDROOT
BRANCH   4   9
HETATM    9  C   UNK N   1      36.040  11.970  15.323  0.00  0.00     0.048 A 
HETATM   10  C   UNK N   1      35.534  12.116  16.673  0.00  0.00    -0.013 A 
HETATM   11  C   UNK N   1      34.791  13.341  17.116  0.00  0.00     0.052 C 
HETATM   12  C   UNK N   1      35.773  11.026  17.585  0.00  0.00     0.086 A 
HETATM   13  S   UNK N   1      35.344  11.000  18.954  0.00  0.00    -0.071 SA
HETATM   14  S   UNK N   1      36.623   9.753  16.882  0.00  0.00    -0.040 SA
HETATM   15  S   UNK N   1      36.837  10.487  15.104  0.00  0.00    -0.049 SA
ENDBRANCH   4   9
TORSDOF 1
ENDMDL
MODEL 5
REMARK VINA RESULT:      -4.5      2.205      2.970
REMARK  1 active torsions:
REMARK  status: ('A' for Active; 'I' for Inactive)
REMARK    1  A    between atoms: C_7  and  C_6 
ROOT
HETATM    1  C   UNK N   1      35.178  15.442  11.334  0.00  0.00     0.104 A 
HETATM    2  C   UNK N   1      35.276  16.697  10.733  0.00  0.00     0.105 A 
HETATM    3  C   UNK N   1      33.365  14.907   9.920  0.00  0.00     0.118 A 
HETATM    4  C   UNK N   1      33.456  16.164   9.311  0.00  0.00     0.066 A 
HETATM    5  N   UNK N   1      34.224  14.572  10.917  0.00  0.00    -0.372 N 
ATOM      6  HN  UNK N   1      34.153  13.654  11.356  1.00  0.00     0.164 HD
HETATM    7  N   UNK N   1      34.415  17.031   9.736  0.00  0.00    -0.362 N 
ATOM      8  HN  UNK N   1      34.488  17.949   9.297  1.00  0.00     0.165 HD
ENDROOT
BRANCH   4   9
HETATM    9  C   UNK N   1      32.534  16.560   8.222  0.00  0.00     0.048 A 
HETATM   10  C   UNK N   1      32.878  16.735   6.825  0.00  0.00    -0.013 A 
HETATM   11  C   UNK N   1      34.273  16.521   6.316  0.00  0.00     0.052 C 
HETATM   12  C   UNK N   1      31.817  17.127   5.932  0.00  0.00     0.086 A 
HETATM   13  S   UNK N   1      31.977  17.344   4.522  0.00  0.00    -0.071 SA
HETATM   14  S   UNK N   1      30.335  17.311   6.710  0.00  0.00    -0.040 SA
HETATM   15  S   UNK N   1      30.890  16.868   8.510  0.00  0.00    -0.049 SA
ENDBRANCH   4   9
TORSDOF 1
ENDMDL
MODEL 6
REMARK VINA RESULT:      -4.4      1.693      2.592
REMARK  1 active torsions:
REMARK  status: ('A' for Active; 'I' for Inactive)
REMARK    1  A    between atoms: C_7  and  C_6 
ROOT
HETATM    1  C   UNK N   1      34.449  15.674  10.533  0.00  0.00     0.104 A 
HETATM    2  C   UNK N   1      34.575  16.746   9.648  0.00  0.00     0.105 A 
HETATM    3  C   UNK N   1      32.354  15.138   9.585  0.00  0.00     0.118 A 
HETATM    4  C   UNK N   1      32.472  16.211   8.694  0.00  0.00     0.066 A 
HETATM    5  N   UNK N   1      33.341  14.892  10.484  0.00  0.00    -0.372 N 
ATOM      6  HN  UNK N   1      33.249  14.109  11.131  1.00  0.00     0.164 HD
HETATM    7  N   UNK N   1      33.585  16.991   8.749  0.00  0.00    -0.362 N 
ATOM      8  HN  UNK N   1      33.679  17.774   8.103  1.00  0.00     0.165 HD
ENDROOT
BRANCH   4   9
HETATM    9  C   UNK N   1      31.413  16.506   7.701  0.00  0.00     0.048 A 
HETATM   10  C   UNK N   1      30.323  17.448   7.861  0.00  0.00    -0.013 A 
HETATM   11  C   UNK N   1      30.149  18.259   9.112  0.00  0.00     0.052 C 
HETATM   12  C   UNK N   1      29.401  17.579   6.761  0.00  0.00     0.086 A 
HETATM   13  S   UNK N   1      28.268  18.460   6.747  0.00  0.00    -0.071 SA
HETATM   14  S   UNK N   1      29.782  16.578   5.460  0.00  0.00    -0.040 SA
HETATM   15  S   UNK N   1      31.362  15.733   6.192  0.00  0.00    -0.049 SA
ENDBRANCH   4   9
TORSDOF 1
ENDMDL
MODEL 7
REMARK VINA RESULT:      -4.3      6.119      8.118
REMARK  1 active torsions:
REMARK  status: ('A' for Active; 'I' for Inactive)
REMARK    1  A    between atoms: C_7  and  C_6 
ROOT
HETATM    1  C   UNK N   1      28.203  18.765   5.128  0.00  0.00     0.104 A 
HETATM    2  C   UNK N   1      27.335  19.454   5.975  0.00  0.00     0.105 A 
HETATM    3  C   UNK N   1      26.364  18.025   3.845  0.00  0.00     0.118 A 
HETATM    4  C   UNK N   1      25.486  18.714   4.689  0.00  0.00     0.066 A 
HETATM    5  N   UNK N   1      27.701  18.064   4.080  0.00  0.00    -0.372 N 
ATOM      6  HN  UNK N   1      28.336  17.560   3.461  1.00  0.00     0.164 HD
HETATM    7  N   UNK N   1      25.997  19.414   5.739  0.00  0.00    -0.362 N 
ATOM      8  HN  UNK N   1      25.364  19.919   6.359  1.00  0.00     0.165 HD
ENDROOT
BRANCH   4   9
HETATM    9  C   UNK N   1      24.022  18.692   4.461  0.00  0.00     0.048 A 
HETATM   10  C   UNK N   1      23.272  19.590   3.605  0.00  0.00    -0.013 A 
HETATM   11  C   UNK N   1      23.936  20.686   2.826  0.00  0.00     0.052 C 
HETATM   12  C   UNK N   1      21.847  19.387   3.530  0.00  0.00     0.086 A 
HETATM   13  S   UNK N   1      20.952  20.179   2.736  0.00  0.00    -0.071 SA
HETATM   14  S   UNK N   1      21.313  18.104   4.483  0.00  0.00    -0.040 SA
HETATM   15  S   UNK N   1      23.017  17.553   5.217  0.00  0.00    -0.049 SA
ENDBRANCH   4   9
TORSDOF 1
ENDMDL
MODEL 8
REMARK VINA RESULT:      -4.2      3.440      5.026
REMARK  1 active torsions:
REMARK  status: ('A' for Active; 'I' for Inactive)
REMARK    1  A    between atoms: C_7  and  C_6 
ROOT
HETATM    1  C   UNK N   1      28.427  18.335   9.054  0.00  0.00     0.104 A 
HETATM    2  C   UNK N   1      29.640  18.534   9.715  0.00  0.00     0.105 A 
HETATM    3  C   UNK N   1      29.537  17.071   7.397  0.00  0.00     0.118 A 
HETATM    4  C   UNK N   1      30.758  17.265   8.053  0.00  0.00     0.066 A 
HETATM    5  N   UNK N   1      28.399  17.608   7.908  0.00  0.00    -0.372 N 
ATOM      6  HN  UNK N   1      27.513  17.464   7.426  1.00  0.00     0.164 HD
HETATM    7  N   UNK N   1      30.778  17.996   9.201  0.00  0.00    -0.362 N 
ATOM      8  HN  UNK N   1      31.663  18.142   9.685  1.00  0.00     0.165 HD
ENDROOT
BRANCH   4   9
HETATM    9  C   UNK N   1      32.017  16.693   7.521  0.00  0.00     0.048 A 
HETATM   10  C   UNK N   1      32.790  15.619   8.113  0.00  0.00    -0.013 A 
HETATM   11  C   UNK N   1      32.372  14.946   9.386  0.00  0.00     0.052 C 
HETATM   12  C   UNK N   1      33.990  15.218   7.423  0.00  0.00     0.086 A 
HETATM   13  S   UNK N   1      34.874  14.177   7.863  0.00  0.00    -0.071 SA
HETATM   14  S   UNK N   1      34.270  16.104   6.017  0.00  0.00    -0.040 SA
HETATM   15  S   UNK N   1      32.723  17.265   6.088  0.00  0.00    -0.049 SA
ENDBRANCH   4   9
TORSDOF 1
ENDMDL
MODEL 9
REMARK VINA RESULT:      -4.1     14.090     15.318
REMARK  1 active torsions:
REMARK  status: ('A' for Active; 'I' for Inactive)
REMARK    1  A    between atoms: C_7  and  C_6 
ROOT
HETATM    1  C   UNK N   1      46.528  25.567   1.051  0.00  0.00     0.104 A 
HETATM    2  C   UNK N   1      45.914  25.618   2.303  0.00  0.00     0.105 A 
HETATM    3  C   UNK N   1      45.359  23.576   0.559  0.00  0.00     0.118 A 
HETATM    4  C   UNK N   1      44.737  23.619   1.812  0.00  0.00     0.066 A 
HETATM    5  N   UNK N   1      46.239  24.547   0.204  0.00  0.00    -0.372 N 
ATOM      6  HN  UNK N   1      46.688  24.510  -0.711  1.00  0.00     0.164 HD
HETATM    7  N   UNK N   1      45.033  24.645   2.656  0.00  0.00    -0.362 N 
ATOM      8  HN  UNK N   1      44.585  24.684   3.572  1.00  0.00     0.165 HD
ENDROOT
BRANCH   4   9
HETATM    9  C   UNK N   1      43.772  22.576   2.230  0.00  0.00     0.048 A 
HETATM   10  C   UNK N   1      42.349  22.563   1.959  0.00  0.00    -0.013 A 
HETATM   11  C   UNK N   1      41.676  23.661   1.190  0.00  0.00     0.052 C 
HETATM   12  C   UNK N   1      41.595  21.443   2.463  0.00  0.00     0.086 A 
HETATM   13  S   UNK N   1      40.181  21.268   2.288  0.00  0.00    -0.071 SA
HETATM   14  S   UNK N   1      42.546  20.329   3.295  0.00  0.00    -0.040 SA
HETATM   15  S   UNK N   1      44.259  21.213   3.117  0.00  0.00    -0.049 SA
ENDBRANCH   4   9
TORSDOF 1
ENDMDL
