REMARK  21 active torsions:
REMARK  status: ('A' for Active; 'I' for Inactive)
REMARK    1  A    between atoms: C_2  and  C_3 
REMARK    2  A    between atoms: C_3  and  C_4 
REMARK    3  A    between atoms: C_4  and  C_5 
REMARK    4  A    between atoms: C_5  and  C_6 
REMARK    5  A    between atoms: C_6  and  C_7 
REMARK    6  A    between atoms: C_7  and  C_8 
REMARK    7  A    between atoms: C_8  and  C_9 
REMARK    8  A    between atoms: C_10  and  C_11 
REMARK    9  A    between atoms: C_11  and  C_12 
REMARK   10  A    between atoms: C_12  and  C_13 
REMARK   11  A    between atoms: C_13  and  C_14 
REMARK   12  A    between atoms: C_14  and  C_15 
REMARK   13  A    between atoms: C_15  and  C_16 
REMARK   14  A    between atoms: C_16  and  C_17 
REMARK   15  A    between atoms: C_17  and  C_18 
REMARK   16  A    between atoms: C_18  and  O_20 
REMARK   17  A    between atoms: O_20  and  C_21 
REMARK   18  A    between atoms: C_22  and  C_21 
REMARK   19  A    between atoms: C_23  and  O_38 
REMARK   20  A    between atoms: C_25  and  N_27 
REMARK   21  A    between atoms: C_30  and  N_35 
ROOT
HETATM    1  C   UNK N   1       7.504  -8.979   1.422  0.00  0.00     0.213 C 
ENDROOT
BRANCH   1   2
HETATM    2  O   UNK N   1       6.853 -10.051   0.865  0.00  0.00    -0.319 OA
BRANCH   2   3
HETATM    3  C   UNK N   1       5.503 -10.095   0.793  0.00  0.00     0.258 C 
HETATM    4  O   UNK N   1       4.971 -10.997   0.167  0.00  0.00    -0.265 OA
BRANCH   3   5
HETATM    5  C   UNK N   1       4.648  -9.051   1.472  0.00  0.00     0.111 C 
BRANCH   5   6
HETATM    6  C   UNK N   1       4.968  -7.634   0.983  0.00  0.00     0.010 C 
BRANCH   6   7
HETATM    7  C   UNK N   1       4.205  -7.188  -0.260  0.00  0.00     0.000 C 
BRANCH   7   8
HETATM    8  C   UNK N   1       4.257  -8.211  -1.382  0.00  0.00     0.000 C 
BRANCH   8   9
HETATM    9  C   UNK N   1       2.876  -8.813  -1.614  0.00  0.00     0.000 C 
BRANCH   9  10
HETATM   10  C   UNK N   1       2.402  -9.641  -0.423  0.00  0.00     0.004 C 
BRANCH  10  11
HETATM   11  C   UNK N   1       1.611  -8.785   0.558  0.00  0.00     0.027 C 
BRANCH  11  12
HETATM   12  C   UNK N   1       0.173  -8.787   0.175  0.00  0.00    -0.031 C 
HETATM   13  C   UNK N   1      -0.207  -8.327  -1.017  0.00  0.00    -0.031 C 
BRANCH  13  14
HETATM   14  C   UNK N   1      -1.638  -8.357  -1.435  0.00  0.00     0.027 C 
BRANCH  14  15
HETATM   15  C   UNK N   1      -2.465  -7.395  -0.600  0.00  0.00     0.004 C 
BRANCH  15  16
HETATM   16  C   UNK N   1      -2.785  -8.012   0.752  0.00  0.00     0.000 C 
BRANCH  16  17
HETATM   17  C   UNK N   1      -4.269  -8.295   0.858  0.00  0.00     0.000 C 
BRANCH  17  18
HETATM   18  C   UNK N   1      -4.668  -9.442  -0.055  0.00  0.00     0.000 C 
BRANCH  18  19
HETATM   19  C   UNK N   1      -5.977  -9.129  -0.765  0.00  0.00    -0.000 C 
BRANCH  19  20
HETATM   20  C   UNK N   1      -7.162  -9.199   0.185  0.00  0.00    -0.005 C 
HETATM   21  C   UNK N   1      -7.382  -7.858   0.861  0.00  0.00     0.005 C 
ENDBRANCH  19  20
ENDBRANCH  18  19
ENDBRANCH  17  18
ENDBRANCH  16  17
ENDBRANCH  15  16
ENDBRANCH  14  15
ENDBRANCH  13  14
ENDBRANCH  11  12
ENDBRANCH  10  11
ENDBRANCH   9  10
ENDBRANCH   8   9
ENDBRANCH   7   8
ENDBRANCH   6   7
ENDBRANCH   5   6
ENDBRANCH   3   5
ENDBRANCH   2   3
ENDBRANCH   1   2
BRANCH   1  22
HETATM   22  C   UNK N   1       8.196  -8.245   0.306  0.00  0.00     0.183 C 
HETATM   23  C   UNK N   1       8.355  -6.765   0.600  0.00  0.00     0.226 C 
HETATM   24  C   UNK N   1       9.773  -6.491   0.160  0.00  0.00     0.314 C 
HETATM   25  C   UNK N   1      10.167  -7.807  -0.529  0.00  0.00     0.307 C 
HETATM   26  F   UNK N   1       9.891  -5.401  -0.687  0.00  0.00    -0.198 F 
HETATM   27  F   UNK N   1      10.496  -6.277   1.321  0.00  0.00    -0.198 F 
HETATM   28  O   UNK N   1       9.457  -8.804   0.138  0.00  0.00    -0.350 OA
BRANCH  23  29
HETATM   29  O   UNK N   1       7.422  -6.041  -0.144  0.00  0.00    -0.387 OA
HETATM   30  H   UNK N   1       7.533  -5.228  -0.660  0.00  0.00     0.210 HD
ENDBRANCH  23  29
BRANCH  25  31
HETATM   31  N   UNK N   1      11.602  -8.148  -0.507  0.00  0.00    -0.276 N 
HETATM   32  C   UNK N   1      12.534  -7.259  -0.053  0.00  0.00     0.102 A 
HETATM   33  C   UNK N   1      13.872  -7.621   0.056  0.00  0.00     0.065 A 
HETATM   34  C   UNK N   1      14.249  -8.908  -0.301  0.00  0.00     0.103 A 
HETATM   35  N   UNK N   1      13.324  -9.779  -0.776  0.00  0.00    -0.295 N 
HETATM   36  C   UNK N   1      12.011  -9.415  -0.891  0.00  0.00     0.330 A 
ATOM     37  HN  UNK N   1      13.611 -10.718  -1.050  1.00  0.00     0.172 HD
HETATM   38  O   UNK N   1      11.200 -10.232  -1.303  0.00  0.00    -0.246 OA
BRANCH  34  39
HETATM   39  N   UNK N   1      15.588  -9.315  -0.159  0.00  0.00    -0.385 N 
HETATM   40  H   UNK N   1      15.811 -10.269  -0.060  0.00  0.00     0.157 HD
HETATM   41  H   UNK N   1      16.307  -8.642  -0.159  0.00  0.00     0.157 HD
ENDBRANCH  34  39
ENDBRANCH  25  31
ENDBRANCH   1  22
TORSDOF 21
