REMARK  3 active torsions:
REMARK  status: ('A' for Active; 'I' for Inactive)
REMARK    1  A    between atoms: C_7  and  C_6 
REMARK    2  A    between atoms: C_9  and  C_6 
REMARK    3  A    between atoms: N_10  and  C_7 
ROOT
HETATM    1  C   UNK N   1       2.934   5.114   0.000  0.00  0.00     0.165 C 
HETATM    2  N   UNK N   1       1.784   4.611  -0.000  0.00  0.00    -0.390 N 
ATOM      3  HN  UNK N   1       0.944   5.190  -0.001  1.00  0.00     0.159 HD
HETATM    4  S   UNK N   1       4.251   5.613  -0.000  0.00  0.00    -0.075 SA
ENDROOT
BRANCH   2   5
HETATM    5  C   UNK N   1       1.713   3.186   0.000  0.00  0.00     0.124 C 
BRANCH   5   6
HETATM    6  C   UNK N   1       0.304   2.627  -0.000  0.00  0.00     0.058 C 
BRANCH   6   7
HETATM    7  C   UNK N   1       0.381   1.122  -0.000  0.00  0.00    -0.057 A 
HETATM    8  C   UNK N   1       1.624   0.455  -0.000  0.00  0.00     0.007 A 
HETATM    9  C   UNK N   1       1.688  -0.935   0.000  0.00  0.00     0.001 A 
HETATM   10  C   UNK N   1       0.510  -1.680   0.000  0.00  0.00     0.000 A 
HETATM   11  C   UNK N   1      -0.730  -1.030   0.000  0.00  0.00     0.001 A 
HETATM   12  C   UNK N   1      -0.795   0.368  -0.000  0.00  0.00     0.007 A 
ENDBRANCH   6   7
ENDBRANCH   5   6
ENDBRANCH   2   5
TORSDOF 3
