REMARK  0 active torsions:
REMARK  status: ('A' for Active; 'I' for Inactive)
ROOT
HETATM    1  C   UNK N   1      -1.729   1.090  -0.000  0.00  0.00     0.152 C 
HETATM    2  C   UNK N   1       1.443  -0.893  -0.000  0.00  0.00     0.029 A 
HETATM    3  C   UNK N   1       1.965   0.557   0.000  0.00  0.00     0.104 A 
HETATM    4  C   UNK N   1      -0.098  -0.829  -0.000  0.00  0.00     0.125 A 
HETATM    5  C   UNK N   1       0.708   1.329  -0.000  0.00  0.00     0.219 A 
HETATM    6  N   UNK N   1      -0.387   0.569  -0.000  0.00  0.00    -0.356 N 
HETATM    7  O   UNK N   1       0.668   2.550   0.000  0.00  0.00    -0.273 OA
ENDROOT
TORSDOF 0
