MODEL 1
REMARK VINA RESULT:      -7.2      0.000      0.000
REMARK  4 active torsions:
REMARK  status: ('A' for Active; 'I' for Inactive)
REMARK       I    between atoms: C_5  and  N_9 
REMARK    1  A    between atoms: N_9  and  C_10 
REMARK    2  A    between atoms: C_10  and  C_11 
REMARK    3  A    between atoms: C_14  and  C_17 
REMARK    4  A    between atoms: C_17  and  N_18 
REMARK       I    between atoms: N_18  and  C_19 
ROOT
HETATM    1  C   UNK N   1      29.963  17.063   6.985  0.00  0.00    -0.040 A 
HETATM    2  C   UNK N   1      30.913  16.807   5.986  0.00  0.00     0.009 A 
HETATM    3  C   UNK N   1      32.261  17.083   6.215  0.00  0.00     0.009 A 
HETATM    4  C   UNK N   1      32.670  17.621   7.437  0.00  0.00    -0.040 A 
HETATM    5  C   UNK N   1      31.722  17.870   8.440  0.00  0.00     0.009 A 
HETATM    6  C   UNK N   1      30.374  17.589   8.213  0.00  0.00     0.009 A 
ENDROOT
BRANCH   1   7
HETATM    7  C   UNK N   1      28.510  16.797   6.777  0.00  0.00     0.176 C 
BRANCH   7   8
HETATM    8  N   UNK N   1      27.691  17.942   7.079  0.00  0.00    -0.222 N 
HETATM    9  C   UNK N   1      27.284  18.819   6.048  0.00  0.00     0.677 A 
HETATM   10  N   UNK N   1      26.507  19.894   6.343  0.00  0.00    -0.202 N 
HETATM   11  N   UNK N   1      27.678  18.594   4.765  0.00  0.00    -0.202 N 
HETATM   12  C   UNK N   1      26.116  20.756   5.367  0.00  0.00     0.107 A 
ATOM     13  HN  UNK N   1      26.215  20.057   7.307  1.00  0.00     0.183 HD
HETATM   14  C   UNK N   1      26.513  20.541   4.048  0.00  0.00     0.035 A 
HETATM   15  C   UNK N   1      27.306  19.433   3.765  0.00  0.00     0.107 A 
ATOM     16  HN  UNK N   1      28.260  17.784   4.552  1.00  0.00     0.183 HD
HETATM   17  H   UNK N   1      27.412  18.116   8.007  0.00  0.00     0.178 HD
ENDBRANCH   7   8
ENDBRANCH   1   7
BRANCH   4  18
HETATM   18  C   UNK N   1      34.119  17.924   7.630  0.00  0.00     0.176 C 
BRANCH  18  19
HETATM   19  N   UNK N   1      34.492  17.972   9.022  0.00  0.00    -0.222 N 
HETATM   20  C   UNK N   1      34.938  16.804   9.680  0.00  0.00     0.677 A 
HETATM   21  N   UNK N   1      35.003  15.622   9.008  0.00  0.00    -0.202 N 
HETATM   22  N   UNK N   1      35.293  16.862  10.991  0.00  0.00    -0.202 N 
HETATM   23  C   UNK N   1      35.417  14.489   9.629  0.00  0.00     0.107 A 
ATOM     24  HN  UNK N   1      34.736  15.589   8.024  1.00  0.00     0.183 HD
HETATM   25  C   UNK N   1      35.783  14.528  10.971  0.00  0.00     0.035 A 
HETATM   26  C   UNK N   1      35.714  15.747  11.644  0.00  0.00     0.107 A 
ATOM     27  HN  UNK N   1      35.243  17.751  11.489  1.00  0.00     0.183 HD
HETATM   28  H   UNK N   1      34.435  18.821   9.515  0.00  0.00     0.178 HD
ENDBRANCH  18  19
ENDBRANCH   4  18
TORSDOF 4
ENDMDL
MODEL 2
REMARK VINA RESULT:      -7.1      0.679      8.569
REMARK  4 active torsions:
REMARK  status: ('A' for Active; 'I' for Inactive)
REMARK       I    between atoms: C_5  and  N_9 
REMARK    1  A    between atoms: N_9  and  C_10 
REMARK    2  A    between atoms: C_10  and  C_11 
REMARK    3  A    between atoms: C_14  and  C_17 
REMARK    4  A    between atoms: C_17  and  N_18 
REMARK       I    between atoms: N_18  and  C_19 
ROOT
HETATM    1  C   UNK N   1      32.758  17.559   7.276  0.00  0.00    -0.040 A 
HETATM    2  C   UNK N   1      32.352  17.167   5.992  0.00  0.00     0.009 A 
HETATM    3  C   UNK N   1      31.008  16.902   5.734  0.00  0.00     0.009 A 
HETATM    4  C   UNK N   1      30.060  17.018   6.753  0.00  0.00    -0.040 A 
HETATM    5  C   UNK N   1      30.463  17.418   8.036  0.00  0.00     0.009 A 
HETATM    6  C   UNK N   1      31.808  17.689   8.293  0.00  0.00     0.009 A 
ENDROOT
BRANCH   1   7
HETATM    7  C   UNK N   1      34.187  17.838   7.599  0.00  0.00     0.176 C 
BRANCH   7   8
HETATM    8  N   UNK N   1      34.433  17.887   9.018  0.00  0.00    -0.222 N 
HETATM    9  C   UNK N   1      34.968  16.764   9.688  0.00  0.00     0.677 A 
HETATM   10  N   UNK N   1      35.200  16.824  11.026  0.00  0.00    -0.202 N 
HETATM   11  N   UNK N   1      35.241  15.623   8.998  0.00  0.00    -0.202 N 
HETATM   12  C   UNK N   1      35.704  15.749  11.690  0.00  0.00     0.107 A 
ATOM     13  HN  UNK N   1      34.994  17.682  11.537  1.00  0.00     0.183 HD
HETATM   14  C   UNK N   1      35.986  14.572  10.998  0.00  0.00     0.035 A 
HETATM   15  C   UNK N   1      35.744  14.532   9.629  0.00  0.00     0.107 A 
ATOM     16  HN  UNK N   1      35.065  15.588   7.994  1.00  0.00     0.183 HD
HETATM   17  H   UNK N   1      34.227  18.707   9.524  0.00  0.00     0.178 HD
ENDBRANCH   7   8
ENDBRANCH   1   7
BRANCH   4  18
HETATM   18  C   UNK N   1      28.636  16.701   6.439  0.00  0.00     0.176 C 
BRANCH  18  19
HETATM   19  N   UNK N   1      28.137  17.457   5.318  0.00  0.00    -0.222 N 
HETATM   20  C   UNK N   1      27.593  18.746   5.514  0.00  0.00     0.677 A 
HETATM   21  N   UNK N   1      27.523  19.276   6.767  0.00  0.00    -0.202 N 
HETATM   22  N   UNK N   1      27.131  19.453   4.450  0.00  0.00    -0.202 N 
HETATM   23  C   UNK N   1      26.992  20.506   6.974  0.00  0.00     0.107 A 
ATOM     24  HN  UNK N   1      27.874  18.738   7.559  1.00  0.00     0.183 HD
HETATM   25  C   UNK N   1      26.511  21.245   5.896  0.00  0.00     0.035 A 
HETATM   26  C   UNK N   1      26.593  20.690   4.620  0.00  0.00     0.107 A 
ATOM     27  HN  UNK N   1      27.187  19.051   3.514  1.00  0.00     0.183 HD
HETATM   28  H   UNK N   1      28.174  17.073   4.413  0.00  0.00     0.178 HD
ENDBRANCH  18  19
ENDBRANCH   4  18
TORSDOF 4
ENDMDL
MODEL 3
REMARK VINA RESULT:      -7.0      1.126      1.863
REMARK  4 active torsions:
REMARK  status: ('A' for Active; 'I' for Inactive)
REMARK       I    between atoms: C_5  and  N_9 
REMARK    1  A    between atoms: N_9  and  C_10 
REMARK    2  A    between atoms: C_10  and  C_11 
REMARK    3  A    between atoms: C_14  and  C_17 
REMARK    4  A    between atoms: C_17  and  N_18 
REMARK       I    between atoms: N_18  and  C_19 
ROOT
HETATM    1  C   UNK N   1      30.995  16.986   5.898  0.00  0.00    -0.040 A 
HETATM    2  C   UNK N   1      30.980  17.036   7.300  0.00  0.00     0.009 A 
HETATM    3  C   UNK N   1      32.145  17.347   8.000  0.00  0.00     0.009 A 
HETATM    4  C   UNK N   1      33.332  17.604   7.311  0.00  0.00    -0.040 A 
HETATM    5  C   UNK N   1      33.346  17.562   5.910  0.00  0.00     0.009 A 
HETATM    6  C   UNK N   1      32.179  17.256   5.208  0.00  0.00     0.009 A 
ENDROOT
BRANCH   1   7
HETATM    7  C   UNK N   1      29.775  16.643   5.110  0.00  0.00     0.176 C 
BRANCH   7   8
HETATM    8  N   UNK N   1      29.293  17.752   4.328  0.00  0.00    -0.222 N 
HETATM    9  C   UNK N   1      28.512  18.764   4.931  0.00  0.00     0.677 A 
HETATM   10  N   UNK N   1      28.066  19.808   4.184  0.00  0.00    -0.202 N 
HETATM   11  N   UNK N   1      28.197  18.687   6.253  0.00  0.00    -0.202 N 
HETATM   12  C   UNK N   1      27.303  20.784   4.745  0.00  0.00     0.107 A 
ATOM     13  HN  UNK N   1      28.306  19.860   3.195  1.00  0.00     0.183 HD
HETATM   14  C   UNK N   1      26.970  20.719   6.096  0.00  0.00     0.035 A 
HETATM   15  C   UNK N   1      27.438  19.643   6.845  0.00  0.00     0.107 A 
ATOM     16  HN  UNK N   1      28.537  17.900   6.806  1.00  0.00     0.183 HD
HETATM   17  H   UNK N   1      29.508  17.807   3.369  0.00  0.00     0.178 HD
ENDBRANCH   7   8
ENDBRANCH   1   7
BRANCH   4  18
HETATM   18  C   UNK N   1      34.561  17.909   8.102  0.00  0.00     0.176 C 
BRANCH  18  19
HETATM   19  N   UNK N   1      34.421  17.563   9.494  0.00  0.00    -0.222 N 
HETATM   20  C   UNK N   1      35.004  16.377   9.995  0.00  0.00     0.677 A 
HETATM   21  N   UNK N   1      35.687  15.546   9.162  0.00  0.00    -0.202 N 
HETATM   22  N   UNK N   1      34.871  16.064  11.311  0.00  0.00    -0.202 N 
HETATM   23  C   UNK N   1      36.242  14.397   9.625  0.00  0.00     0.107 A 
ATOM     24  HN  UNK N   1      35.783  15.790   8.176  1.00  0.00     0.183 HD
HETATM   25  C   UNK N   1      36.115  14.058  10.969  0.00  0.00     0.035 A 
HETATM   26  C   UNK N   1      35.415  14.922  11.810  0.00  0.00     0.107 A 
ATOM     27  HN  UNK N   1      34.359  16.692  11.931  1.00  0.00     0.183 HD
HETATM   28  H   UNK N   1      33.917  18.154  10.098  0.00  0.00     0.178 HD
ENDBRANCH  18  19
ENDBRANCH   4  18
TORSDOF 4
ENDMDL
MODEL 4
REMARK VINA RESULT:      -7.0      2.873      5.097
REMARK  4 active torsions:
REMARK  status: ('A' for Active; 'I' for Inactive)
REMARK       I    between atoms: C_5  and  N_9 
REMARK    1  A    between atoms: N_9  and  C_10 
REMARK    2  A    between atoms: C_10  and  C_11 
REMARK    3  A    between atoms: C_14  and  C_17 
REMARK    4  A    between atoms: C_17  and  N_18 
REMARK       I    between atoms: N_18  and  C_19 
ROOT
HETATM    1  C   UNK N   1      33.893  16.839   8.982  0.00  0.00    -0.040 A 
HETATM    2  C   UNK N   1      34.978  17.148   9.815  0.00  0.00     0.009 A 
HETATM    3  C   UNK N   1      35.616  16.138  10.534  0.00  0.00     0.009 A 
HETATM    4  C   UNK N   1      35.175  14.817  10.434  0.00  0.00    -0.040 A 
HETATM    5  C   UNK N   1      34.095  14.506   9.596  0.00  0.00     0.009 A 
HETATM    6  C   UNK N   1      33.459  15.516   8.872  0.00  0.00     0.009 A 
ENDROOT
BRANCH   1   7
HETATM    7  C   UNK N   1      33.172  17.891   8.207  0.00  0.00     0.176 C 
BRANCH   7   8
HETATM    8  N   UNK N   1      32.003  17.379   7.538  0.00  0.00    -0.222 N 
HETATM    9  C   UNK N   1      30.717  17.601   8.081  0.00  0.00     0.677 A 
HETATM   10  N   UNK N   1      29.621  17.118   7.439  0.00  0.00    -0.202 N 
HETATM   11  N   UNK N   1      30.577  18.288   9.247  0.00  0.00    -0.202 N 
HETATM   12  C   UNK N   1      28.376  17.312   7.952  0.00  0.00     0.107 A 
ATOM     13  HN  UNK N   1      29.733  16.605   6.565  1.00  0.00     0.183 HD
HETATM   14  C   UNK N   1      28.216  18.010   9.148  0.00  0.00     0.035 A 
HETATM   15  C   UNK N   1      29.351  18.499   9.789  0.00  0.00     0.107 A 
ATOM     16  HN  UNK N   1      31.405  18.648   9.722  1.00  0.00     0.183 HD
HETATM   17  H   UNK N   1      32.099  16.872   6.700  0.00  0.00     0.178 HD
ENDBRANCH   7   8
ENDBRANCH   1   7
BRANCH   4  18
HETATM   18  C   UNK N   1      35.871  13.772  11.241  0.00  0.00     0.176 C 
BRANCH  18  19
HETATM   19  N   UNK N   1      36.660  14.334  12.309  0.00  0.00    -0.222 N 
HETATM   20  C   UNK N   1      36.359  14.026  13.654  0.00  0.00     0.677 A 
HETATM   21  N   UNK N   1      35.311  13.210  13.951  0.00  0.00    -0.202 N 
HETATM   22  N   UNK N   1      37.113  14.556  14.653  0.00  0.00    -0.202 N 
HETATM   23  C   UNK N   1      35.000  12.914  15.238  0.00  0.00     0.107 A 
ATOM     24  HN  UNK N   1      34.752  12.815  13.194  1.00  0.00     0.183 HD
HETATM   25  C   UNK N   1      35.760  13.449  16.275  0.00  0.00     0.035 A 
HETATM   26  C   UNK N   1      36.831  14.281  15.954  0.00  0.00     0.107 A 
ATOM     27  HN  UNK N   1      37.898  15.166  14.424  1.00  0.00     0.183 HD
HETATM   28  H   UNK N   1      37.411  14.935  12.100  0.00  0.00     0.178 HD
ENDBRANCH  18  19
ENDBRANCH   4  18
TORSDOF 4
ENDMDL
MODEL 5
REMARK VINA RESULT:      -7.0      2.876      9.374
REMARK  4 active torsions:
REMARK  status: ('A' for Active; 'I' for Inactive)
REMARK       I    between atoms: C_5  and  N_9 
REMARK    1  A    between atoms: N_9  and  C_10 
REMARK    2  A    between atoms: C_10  and  C_11 
REMARK    3  A    between atoms: C_14  and  C_17 
REMARK    4  A    between atoms: C_17  and  N_18 
REMARK       I    between atoms: N_18  and  C_19 
ROOT
HETATM    1  C   UNK N   1      35.722  14.677  10.108  0.00  0.00    -0.040 A 
HETATM    2  C   UNK N   1      34.923  14.412   8.986  0.00  0.00     0.009 A 
HETATM    3  C   UNK N   1      34.186  15.438   8.396  0.00  0.00     0.009 A 
HETATM    4  C   UNK N   1      34.233  16.731   8.922  0.00  0.00    -0.040 A 
HETATM    5  C   UNK N   1      35.037  16.998  10.039  0.00  0.00     0.009 A 
HETATM    6  C   UNK N   1      35.780  15.973  10.627  0.00  0.00     0.009 A 
ENDROOT
BRANCH   1   7
HETATM    7  C   UNK N   1      36.515  13.607  10.779  0.00  0.00     0.176 C 
BRANCH   7   8
HETATM    8  N   UNK N   1      37.018  14.017  12.066  0.00  0.00    -0.222 N 
HETATM    9  C   UNK N   1      36.412  13.544  13.252  0.00  0.00     0.677 A 
HETATM   10  N   UNK N   1      36.897  13.934  14.460  0.00  0.00    -0.202 N 
HETATM   11  N   UNK N   1      35.339  12.710  13.185  0.00  0.00    -0.202 N 
HETATM   12  C   UNK N   1      36.320  13.499  15.611  0.00  0.00     0.107 A 
ATOM     13  HN  UNK N   1      37.702  14.559  14.503  1.00  0.00     0.183 HD
HETATM   14  C   UNK N   1      35.219  12.646  15.560  0.00  0.00     0.035 A 
HETATM   15  C   UNK N   1      34.738  12.256  14.314  0.00  0.00     0.107 A 
ATOM     16  HN  UNK N   1      34.982  12.421  12.274  1.00  0.00     0.183 HD
HETATM   17  H   UNK N   1      37.787  14.630  12.120  0.00  0.00     0.178 HD
ENDBRANCH   7   8
ENDBRANCH   1   7
BRANCH   4  18
HETATM   18  C   UNK N   1      33.409  17.792   8.273  0.00  0.00     0.176 C 
BRANCH  18  19
HETATM   19  N   UNK N   1      32.231  17.262   7.633  0.00  0.00    -0.222 N 
HETATM   20  C   UNK N   1      30.948  17.553   8.149  0.00  0.00     0.677 A 
HETATM   21  N   UNK N   1      30.817  18.322   9.264  0.00  0.00    -0.202 N 
HETATM   22  N   UNK N   1      29.844  17.053   7.533  0.00  0.00    -0.202 N 
HETATM   23  C   UNK N   1      29.594  18.600   9.779  0.00  0.00     0.107 A 
ATOM     24  HN  UNK N   1      31.652  18.694   9.718  1.00  0.00     0.183 HD
HETATM   25  C   UNK N   1      28.451  18.096   9.164  0.00  0.00     0.035 A 
HETATM   26  C   UNK N   1      28.602  17.312   8.021  0.00  0.00     0.107 A 
ATOM     27  HN  UNK N   1      29.949  16.478   6.697  1.00  0.00     0.183 HD
HETATM   28  H   UNK N   1      32.321  16.695   6.834  0.00  0.00     0.178 HD
ENDBRANCH  18  19
ENDBRANCH   4  18
TORSDOF 4
ENDMDL
MODEL 6
REMARK VINA RESULT:      -6.7      8.437     12.596
REMARK  4 active torsions:
REMARK  status: ('A' for Active; 'I' for Inactive)
REMARK       I    between atoms: C_5  and  N_9 
REMARK    1  A    between atoms: N_9  and  C_10 
REMARK    2  A    between atoms: C_10  and  C_11 
REMARK    3  A    between atoms: C_14  and  C_17 
REMARK    4  A    between atoms: C_17  and  N_18 
REMARK       I    between atoms: N_18  and  C_19 
ROOT
HETATM    1  C   UNK N   1      35.055  12.300  15.936  0.00  0.00    -0.040 A 
HETATM    2  C   UNK N   1      34.988  13.283  16.935  0.00  0.00     0.009 A 
HETATM    3  C   UNK N   1      35.194  12.937  18.270  0.00  0.00     0.009 A 
HETATM    4  C   UNK N   1      35.461  11.611  18.620  0.00  0.00    -0.040 A 
HETATM    5  C   UNK N   1      35.535  10.630  17.621  0.00  0.00     0.009 A 
HETATM    6  C   UNK N   1      35.334  10.976  16.284  0.00  0.00     0.009 A 
ENDROOT
BRANCH   1   7
HETATM    7  C   UNK N   1      34.826  12.624  14.498  0.00  0.00     0.176 C 
BRANCH   7   8
HETATM    8  N   UNK N   1      35.629  13.732  14.047  0.00  0.00    -0.222 N 
HETATM    9  C   UNK N   1      35.524  14.193  12.715  0.00  0.00     0.677 A 
HETATM   10  N   UNK N   1      36.282  15.242  12.302  0.00  0.00    -0.202 N 
HETATM   11  N   UNK N   1      34.673  13.582  11.846  0.00  0.00    -0.202 N 
HETATM   12  C   UNK N   1      36.203  15.692  11.021  0.00  0.00     0.107 A 
ATOM     13  HN  UNK N   1      36.917  15.696  12.959  1.00  0.00     0.183 HD
HETATM   14  C   UNK N   1      35.339  15.076  10.118  0.00  0.00     0.035 A 
HETATM   15  C   UNK N   1      34.569  14.005  10.560  0.00  0.00     0.107 A 
ATOM     16  HN  UNK N   1      34.106  12.797  12.165  1.00  0.00     0.183 HD
HETATM   17  H   UNK N   1      36.254  14.170  14.669  0.00  0.00     0.178 HD
ENDBRANCH   7   8
ENDBRANCH   1   7
BRANCH   4  18
HETATM   18  C   UNK N   1      35.650  11.282  20.063  0.00  0.00     0.176 C 
BRANCH  18  19
HETATM   19  N   UNK N   1      34.468  11.537  20.847  0.00  0.00    -0.222 N 
HETATM   20  C   UNK N   1      33.839  10.486  21.551  0.00  0.00     0.677 A 
HETATM   21  N   UNK N   1      34.338   9.221  21.479  0.00  0.00    -0.202 N 
HETATM   22  N   UNK N   1      32.729  10.739  22.292  0.00  0.00    -0.202 N 
HETATM   23  C   UNK N   1      33.739   8.198  22.138  0.00  0.00     0.107 A 
ATOM     24  HN  UNK N   1      35.173   9.041  20.922  1.00  0.00     0.183 HD
HETATM   25  C   UNK N   1      32.599   8.437  22.901  0.00  0.00     0.035 A 
HETATM   26  C   UNK N   1      32.103   9.739  22.967  0.00  0.00     0.107 A 
ATOM     27  HN  UNK N   1      32.362  11.690  22.343  1.00  0.00     0.183 HD
HETATM   28  H   UNK N   1      34.097  12.448  20.892  0.00  0.00     0.178 HD
ENDBRANCH  18  19
ENDBRANCH   4  18
TORSDOF 4
ENDMDL
MODEL 7
REMARK VINA RESULT:      -6.6      8.424     13.392
REMARK  4 active torsions:
REMARK  status: ('A' for Active; 'I' for Inactive)
REMARK       I    between atoms: C_5  and  N_9 
REMARK    1  A    between atoms: N_9  and  C_10 
REMARK    2  A    between atoms: C_10  and  C_11 
REMARK    3  A    between atoms: C_14  and  C_17 
REMARK    4  A    between atoms: C_17  and  N_18 
REMARK       I    between atoms: N_18  and  C_19 
ROOT
HETATM    1  C   UNK N   1      35.936  11.049  17.598  0.00  0.00    -0.040 A 
HETATM    2  C   UNK N   1      36.511  10.681  16.373  0.00  0.00     0.009 A 
HETATM    3  C   UNK N   1      36.439  11.545  15.281  0.00  0.00     0.009 A 
HETATM    4  C   UNK N   1      35.791  12.776  15.399  0.00  0.00    -0.040 A 
HETATM    5  C   UNK N   1      35.223  13.148  16.626  0.00  0.00     0.009 A 
HETATM    6  C   UNK N   1      35.298  12.286  17.721  0.00  0.00     0.009 A 
ENDROOT
BRANCH   1   7
HETATM    7  C   UNK N   1      35.976  10.149  18.788  0.00  0.00     0.176 C 
BRANCH   7   8
HETATM    8  N   UNK N   1      35.469  10.784  19.977  0.00  0.00    -0.222 N 
HETATM    9  C   UNK N   1      34.305  10.290  20.608  0.00  0.00     0.677 A 
HETATM   10  N   UNK N   1      33.838  10.894  21.733  0.00  0.00    -0.202 N 
HETATM   11  N   UNK N   1      33.648   9.219  20.087  0.00  0.00    -0.202 N 
HETATM   12  C   UNK N   1      32.713  10.440  22.347  0.00  0.00     0.107 A 
ATOM     13  HN  UNK N   1      34.335  11.696  22.119  1.00  0.00     0.183 HD
HETATM   14  C   UNK N   1      32.027   9.345  21.823  0.00  0.00     0.035 A 
HETATM   15  C   UNK N   1      32.522   8.739  20.673  0.00  0.00     0.107 A 
ATOM     16  HN  UNK N   1      34.006   8.771  19.243  1.00  0.00     0.183 HD
HETATM   17  H   UNK N   1      35.934  11.567  20.353  0.00  0.00     0.178 HD
ENDBRANCH   7   8
ENDBRANCH   1   7
BRANCH   4  18
HETATM   18  C   UNK N   1      35.717  13.658  14.198  0.00  0.00     0.176 C 
BRANCH  18  19
HETATM   19  N   UNK N   1      36.932  13.638  13.422  0.00  0.00    -0.222 N 
HETATM   20  C   UNK N   1      36.894  13.318  12.047  0.00  0.00     0.677 A 
HETATM   21  N   UNK N   1      35.710  13.011  11.448  0.00  0.00    -0.202 N 
HETATM   22  N   UNK N   1      38.045  13.308  11.323  0.00  0.00    -0.202 N 
HETATM   23  C   UNK N   1      35.658  12.690  10.132  0.00  0.00     0.107 A 
ATOM     24  HN  UNK N   1      34.851  13.023  11.999  1.00  0.00     0.183 HD
HETATM   25  C   UNK N   1      36.826  12.672   9.375  0.00  0.00     0.035 A 
HETATM   26  C   UNK N   1      38.029  12.992  10.002  0.00  0.00     0.107 A 
ATOM     27  HN  UNK N   1      38.928  13.541  11.778  1.00  0.00     0.183 HD
HETATM   28  H   UNK N   1      37.792  13.847  13.853  0.00  0.00     0.178 HD
ENDBRANCH  18  19
ENDBRANCH   4  18
TORSDOF 4
ENDMDL
MODEL 8
REMARK VINA RESULT:      -6.5      1.250      9.038
REMARK  4 active torsions:
REMARK  status: ('A' for Active; 'I' for Inactive)
REMARK       I    between atoms: C_5  and  N_9 
REMARK    1  A    between atoms: N_9  and  C_10 
REMARK    2  A    between atoms: C_10  and  C_11 
REMARK    3  A    between atoms: C_14  and  C_17 
REMARK    4  A    between atoms: C_17  and  N_18 
REMARK       I    between atoms: N_18  and  C_19 
ROOT
HETATM    1  C   UNK N   1      32.602  17.545   7.771  0.00  0.00    -0.040 A 
HETATM    2  C   UNK N   1      31.520  17.903   8.588  0.00  0.00     0.009 A 
HETATM    3  C   UNK N   1      30.224  17.898   8.073  0.00  0.00     0.009 A 
HETATM    4  C   UNK N   1      29.998  17.543   6.741  0.00  0.00    -0.040 A 
HETATM    5  C   UNK N   1      31.079  17.177   5.926  0.00  0.00     0.009 A 
HETATM    6  C   UNK N   1      32.375  17.177   6.442  0.00  0.00     0.009 A 
ENDROOT
BRANCH   1   7
HETATM    7  C   UNK N   1      34.006  17.550   8.277  0.00  0.00     0.176 C 
BRANCH   7   8
HETATM    8  N   UNK N   1      34.098  17.142   9.655  0.00  0.00    -0.222 N 
HETATM    9  C   UNK N   1      34.454  15.814   9.982  0.00  0.00     0.677 A 
HETATM   10  N   UNK N   1      34.542  15.441  11.286  0.00  0.00    -0.202 N 
HETATM   11  N   UNK N   1      34.699  14.909   8.996  0.00  0.00    -0.202 N 
HETATM   12  C   UNK N   1      34.873  14.165  11.620  0.00  0.00     0.107 A 
ATOM     13  HN  UNK N   1      34.358  16.124  12.021  1.00  0.00     0.183 HD
HETATM   14  C   UNK N   1      35.123  13.225  10.622  0.00  0.00     0.035 A 
HETATM   15  C   UNK N   1      35.031  13.627   9.293  0.00  0.00     0.107 A 
ATOM     16  HN  UNK N   1      34.632  15.198   8.020  1.00  0.00     0.183 HD
HETATM   17  H   UNK N   1      33.911  17.789  10.373  0.00  0.00     0.178 HD
ENDBRANCH   7   8
ENDBRANCH   1   7
BRANCH   4  18
HETATM   18  C   UNK N   1      28.598  17.576   6.225  0.00  0.00     0.176 C 
BRANCH  18  19
HETATM   19  N   UNK N   1      28.421  18.544   5.172  0.00  0.00    -0.222 N 
HETATM   20  C   UNK N   1      27.126  18.854   4.700  0.00  0.00     0.677 A 
HETATM   21  N   UNK N   1      26.038  18.227   5.227  0.00  0.00    -0.202 N 
HETATM   22  N   UNK N   1      26.969  19.773   3.711  0.00  0.00    -0.202 N 
HETATM   23  C   UNK N   1      24.789  18.503   4.776  0.00  0.00     0.107 A 
ATOM     24  HN  UNK N   1      26.165  17.540   5.970  1.00  0.00     0.183 HD
HETATM   25  C   UNK N   1      24.608  19.440   3.763  0.00  0.00     0.035 A 
HETATM   26  C   UNK N   1      25.732  20.076   3.236  0.00  0.00     0.107 A 
ATOM     27  HN  UNK N   1      27.788  20.240   3.322  1.00  0.00     0.183 HD
HETATM   28  H   UNK N   1      29.205  18.991   4.779  0.00  0.00     0.178 HD
ENDBRANCH  18  19
ENDBRANCH   4  18
TORSDOF 4
ENDMDL
MODEL 9
REMARK VINA RESULT:      -6.4      2.060      2.720
REMARK  4 active torsions:
REMARK  status: ('A' for Active; 'I' for Inactive)
REMARK       I    between atoms: C_5  and  N_9 
REMARK    1  A    between atoms: N_9  and  C_10 
REMARK    2  A    between atoms: C_10  and  C_11 
REMARK    3  A    between atoms: C_14  and  C_17 
REMARK    4  A    between atoms: C_17  and  N_18 
REMARK       I    between atoms: N_18  and  C_19 
ROOT
HETATM    1  C   UNK N   1      31.282  16.781   7.340  0.00  0.00    -0.040 A 
HETATM    2  C   UNK N   1      32.208  17.707   7.841  0.00  0.00     0.009 A 
HETATM    3  C   UNK N   1      33.234  17.283   8.685  0.00  0.00     0.009 A 
HETATM    4  C   UNK N   1      33.341  15.937   9.040  0.00  0.00    -0.040 A 
HETATM    5  C   UNK N   1      32.420  15.008   8.534  0.00  0.00     0.009 A 
HETATM    6  C   UNK N   1      31.396  15.432   7.685  0.00  0.00     0.009 A 
ENDROOT
BRANCH   1   7
HETATM    7  C   UNK N   1      30.161  17.194   6.447  0.00  0.00     0.176 C 
BRANCH   7   8
HETATM    8  N   UNK N   1      29.187  18.011   7.125  0.00  0.00    -0.222 N 
HETATM    9  C   UNK N   1      28.318  18.846   6.386  0.00  0.00     0.677 A 
HETATM   10  N   UNK N   1      27.401  19.609   7.036  0.00  0.00    -0.202 N 
HETATM   11  N   UNK N   1      28.407  18.893   5.029  0.00  0.00    -0.202 N 
HETATM   12  C   UNK N   1      26.564  20.427   6.343  0.00  0.00     0.107 A 
ATOM     13  HN  UNK N   1      27.339  19.568   8.053  1.00  0.00     0.183 HD
HETATM   14  C   UNK N   1      26.644  20.489   4.953  0.00  0.00     0.035 A 
HETATM   15  C   UNK N   1      27.588  19.698   4.305  0.00  0.00     0.107 A 
ATOM     16  HN  UNK N   1      29.097  18.316   4.549  1.00  0.00     0.183 HD
HETATM   17  H   UNK N   1      29.127  17.989   8.108  0.00  0.00     0.178 HD
ENDBRANCH   7   8
ENDBRANCH   1   7
BRANCH   4  18
HETATM   18  C   UNK N   1      34.439  15.531   9.966  0.00  0.00     0.176 C 
BRANCH  18  19
HETATM   19  N   UNK N   1      34.187  14.260  10.597  0.00  0.00    -0.222 N 
HETATM   20  C   UNK N   1      34.809  13.939  11.825  0.00  0.00     0.677 A 
HETATM   21  N   UNK N   1      35.664  14.823  12.410  0.00  0.00    -0.202 N 
HETATM   22  N   UNK N   1      34.560  12.741  12.415  0.00  0.00    -0.202 N 
HETATM   23  C   UNK N   1      36.279  14.525  13.582  0.00  0.00     0.107 A 
ATOM     24  HN  UNK N   1      35.843  15.721  11.960  1.00  0.00     0.183 HD
HETATM   25  C   UNK N   1      36.038  13.302  14.201  0.00  0.00     0.035 A 
HETATM   26  C   UNK N   1      35.157  12.409  13.590  0.00  0.00     0.107 A 
ATOM     27  HN  UNK N   1      33.917  12.084  11.972  1.00  0.00     0.183 HD
HETATM   28  H   UNK N   1      33.580  13.613  10.172  0.00  0.00     0.178 HD
ENDBRANCH  18  19
ENDBRANCH   4  18
TORSDOF 4
ENDMDL
