REMARK  8 active torsions:
REMARK  status: ('A' for Active; 'I' for Inactive)
REMARK    1  A    between atoms: C_3  and  N_27 
REMARK    2  A    between atoms: C_6  and  C_8 
REMARK    3  A    between atoms: C_9  and  C_8 
REMARK    4  A    between atoms: C_9  and  C_24 
REMARK    5  A    between atoms: C_12  and  O_15 
REMARK    6  A    between atoms: O_15  and  C_16 
REMARK    7  A    between atoms: C_24  and  O_26 
REMARK    8  A    between atoms: N_27  and  C_28 
ROOT
HETATM    1  C   UNK N   1       2.565  -0.405   0.112  0.00  0.00     0.051 C 
HETATM    2  C   UNK N   1       1.212   0.021   0.712  0.00  0.00     0.023 C 
HETATM    3  C   UNK N   1       1.141   1.545   0.892  0.00  0.00     0.034 C 
HETATM    4  C   UNK N   1       1.316   2.246  -0.454  0.00  0.00     0.129 C 
HETATM    5  C   UNK N   1       2.584   1.805  -1.193  0.00  0.00     0.034 C 
HETATM    6  C   UNK N   1       2.711   0.286  -1.258  0.00  0.00     0.023 C 
ENDROOT
BRANCH   1   7
HETATM    7  C   UNK N   1       3.647  -0.032   1.151  0.00  0.00     0.077 C 
BRANCH   7   8
HETATM    8  C   UNK N   1       4.987   0.394   0.642  0.00  0.00     0.012 A 
HETATM    9  N   UNK N   1       5.977  -0.509   0.402  0.00  0.00    -0.346 N 
HETATM   10  C   UNK N   1       7.227  -0.102   0.016  0.00  0.00     0.107 A 
ATOM     11  HN  UNK N   1       5.786  -1.505   0.510  1.00  0.00     0.167 HD
HETATM   12  C   UNK N   1       7.499   1.261  -0.129  0.00  0.00     0.048 A 
HETATM   13  C   UNK N   1       6.501   2.194   0.124  0.00  0.00     0.006 A 
HETATM   14  C   UNK N   1       5.244   1.760   0.526  0.00  0.00     0.025 A 
BRANCH  10  15
HETATM   15  N   UNK N   1       8.276  -1.028  -0.200  0.00  0.00    -0.323 N 
HETATM   16  H   UNK N   1       9.163  -0.664  -0.424  0.00  0.00     0.169 HD
BRANCH  15  17
HETATM   17  C   UNK N   1       8.150  -2.436  -0.121  0.00  0.00     0.149 A 
HETATM   18  S   UNK N   1       9.395  -3.497  -0.261  0.00  0.00    -0.064 SA
HETATM   19  C   UNK N   1       8.523  -4.895  -0.086  0.00  0.00     0.070 A 
HETATM   20  C   UNK N   1       7.188  -4.475   0.088  0.00  0.00     0.097 A 
HETATM   21  N   UNK N   1       6.992  -3.109   0.067  0.00  0.00    -0.346 N 
ATOM     22  HN  UNK N   1       6.083  -2.660   0.181  1.00  0.00     0.167 HD
ENDBRANCH  15  17
ENDBRANCH  10  15
ENDBRANCH   7   8
ENDBRANCH   1   7
BRANCH   1  23
HETATM   23  C   UNK N   1       2.619  -1.896  -0.127  0.00  0.00     0.149 C 
HETATM   24  O   UNK N   1       1.675  -2.614   0.168  0.00  0.00    -0.649 OA
BRANCH  23  25
HETATM   25  O   UNK N   1       3.717  -2.446  -0.683  0.00  0.00    -0.776 OA
HETATM   26  H   UNK N   1       3.768  -3.298  -1.070  0.00  0.00     0.167 HD
ENDBRANCH  23  25
ENDBRANCH   1  23
BRANCH   4  27
HETATM   27  O   UNK N   1       1.173   3.627  -0.331  0.00  0.00    -0.343 OA
BRANCH  27  28
HETATM   28  C   UNK N   1       2.147   4.573  -0.172  0.00  0.00     0.109 A 
HETATM   29  C   UNK N   1       1.777   5.924  -0.074  0.00  0.00     0.171 A 
HETATM   30  C   UNK N   1       2.758   6.919   0.074  0.00  0.00     0.075 A 
HETATM   31  F   UNK N   1       0.465   6.269  -0.123  0.00  0.00    -0.201 F 
HETATM   32  C   UNK N   1       4.109   6.569   0.122  0.00  0.00     0.027 A 
HETATM   33 Cl   UNK N   1       2.306   8.608   0.197  0.00  0.00    -0.081 Cl
HETATM   34  C   UNK N   1       4.485   5.230   0.031  0.00  0.00     0.005 A 
HETATM   35  C   UNK N   1       3.511   4.241  -0.111  0.00  0.00     0.040 A 
ENDBRANCH  27  28
ENDBRANCH   4  27
TORSDOF 8
