MODEL 1
REMARK VINA RESULT:      -7.2      0.000      0.000
REMARK  11 active torsions:
REMARK  status: ('A' for Active; 'I' for Inactive)
REMARK    1  A    between atoms: C_13  and  C_12 
REMARK    2  A    between atoms: N_35  and  C_12 
REMARK    3  A    between atoms: N_38  and  C_13 
REMARK    4  A    between atoms: C_25  and  O_44 
REMARK    5  A    between atoms: C_26  and  O_45 
REMARK    6  A    between atoms: N_35  and  C_27 
REMARK    7  A    between atoms: C_28  and  O_40 
REMARK    8  A    between atoms: C_30  and  O_46 
REMARK    9  A    between atoms: O_42  and  C_31 
REMARK   10  A    between atoms: O_43  and  C_32 
REMARK   11  A    between atoms: O_46  and  C_32 
ROOT
HETATM    1  C   UNK N   1      25.705  20.072   3.379  0.00  0.00     0.010 C 
HETATM    2  C   UNK N   1      26.602   9.795   1.203  0.00  0.00     0.052 C 
HETATM    3  C   UNK N   1      23.608  15.863   4.899  0.00  0.00     0.017 C 
HETATM    4  C   UNK N   1      22.986  14.538   1.153  0.00  0.00     0.046 C 
HETATM    5  C   UNK N   1      23.751  10.240   1.804  0.00  0.00    -0.001 C 
HETATM    6  C   UNK N   1      24.748  11.345   1.820  0.00  0.00     0.011 C 
HETATM    7  C   UNK N   1      22.493  10.332   2.295  0.00  0.00     0.008 C 
HETATM    8  C   UNK N   1      26.055  17.791   4.233  0.00  0.00     0.049 C 
HETATM    9  C   UNK N   1      23.787  18.800   4.333  0.00  0.00     0.039 C 
HETATM   10  C   UNK N   1      21.998  14.701   3.454  0.00  0.00    -0.015 C 
HETATM   11  C   UNK N   1      28.608  14.778   2.277  0.00  0.00     0.090 C 
HETATM   12  C   UNK N   1      25.080  18.695   3.489  0.00  0.00    -0.012 C 
HETATM   13  C   UNK N   1      26.070  11.156   1.535  0.00  0.00    -0.011 C 
HETATM   14  C   UNK N   1      22.672  16.032   3.709  0.00  0.00     0.035 C 
HETATM   15  C   UNK N   1      22.150  14.015   2.286  0.00  0.00    -0.055 C 
HETATM   16  C   UNK N   1      26.984  16.895   3.429  0.00  0.00     0.025 C 
HETATM   17  C   UNK N   1      27.272  14.674   2.188  0.00  0.00     0.089 C 
HETATM   18  C   UNK N   1      29.205  16.024   2.828  0.00  0.00     0.201 C 
HETATM   19  C   UNK N   1      21.868  11.560   2.983  0.00  0.00     0.177 C 
HETATM   20  C   UNK N   1      22.468  18.585   3.546  0.00  0.00     0.150 C 
HETATM   21  C   UNK N   1      28.320  17.036   3.512  0.00  0.00     0.089 C 
HETATM   22  C   UNK N   1      21.740  17.246   3.898  0.00  0.00     0.154 C 
HETATM   23  C   UNK N   1      26.439  15.785   2.628  0.00  0.00     0.207 C 
HETATM   24  C   UNK N   1      21.391  12.729   2.042  0.00  0.00     0.193 C 
HETATM   25  C   UNK N   1      27.035  12.290   1.640  0.00  0.00     0.146 C 
HETATM   26  N   UNK N   1      26.580  13.468   1.874  0.00  0.00    -0.333 N 
ATOM     27  HN  UNK N   1      25.564  13.554   1.829  1.00  0.00     0.168 HD
HETATM   28  O   UNK N   1      30.421  16.147   2.835  0.00  0.00    -0.286 OA
HETATM   29  O   UNK N   1      25.260  15.745   2.368  0.00  0.00    -0.285 OA
ENDROOT
BRANCH  21  30
HETATM   30  N   UNK N   1      28.842  18.126   4.265  0.00  0.00    -0.385 N 
HETATM   31  H   UNK N   1      28.666  19.042   3.951  0.00  0.00     0.159 HD
BRANCH  30  32
HETATM   32  C   UNK N   1      29.615  17.946   5.461  0.00  0.00     0.150 C 
BRANCH  32  33
HETATM   33  C   UNK N   1      28.646  17.707   6.624  0.00  0.00     0.290 C 
BRANCH  33  34
HETATM   34  N   UNK N   1      28.615  18.798   7.597  0.00  0.00     0.081 N 
HETATM   35  C   UNK N   1      27.642  19.796   7.184  0.00  0.00     0.309 C 
HETATM   36  C   UNK N   1      28.247  18.296   8.913  0.00  0.00     0.309 C 
ENDBRANCH  33  34
ENDBRANCH  32  33
ENDBRANCH  30  32
ENDBRANCH  21  30
BRANCH  20  37
HETATM   37  O   UNK N   1      21.583  19.652   3.805  0.00  0.00    -0.388 OA
HETATM   38  C   UNK N   1      21.621  20.538   2.716  0.00  0.00     0.202 C 
ENDBRANCH  20  37
BRANCH  25  39
HETATM   39  O   UNK N   1      28.365  12.059   1.570  0.00  0.00    -0.346 OA
HETATM   40  H   UNK N   1      28.852  12.348   0.824  0.00  0.00     0.219 HD
ENDBRANCH  25  39
BRANCH  22  41
HETATM   41  O   UNK N   1      20.650  17.127   3.028  0.00  0.00    -0.392 OA
HETATM   42  H   UNK N   1      19.833  16.604   3.020  0.00  0.00     0.210 HD
ENDBRANCH  22  41
BRANCH  24  43
HETATM   43  O   UNK N   1      20.036  12.978   2.243  0.00  0.00    -0.304 OA
BRANCH  43  44
HETATM   44  C   UNK N   1      19.199  13.648   1.404  0.00  0.00     0.256 C 
HETATM   45  N   UNK N   1      18.699  13.034   0.398  0.00  0.00    -0.359 N 
HETATM   46  H   UNK N   1      17.728  13.021   0.235  0.00  0.00     0.160 HD
ATOM     47  HN  UNK N   1      19.320  12.547  -0.248  1.00  0.00     0.160 HD
BRANCH  44  48
HETATM   48  O   UNK N   1      18.820  14.918   1.658  0.00  0.00    -0.327 OA
HETATM   49  H   UNK N   1      19.219  15.766   1.626  0.00  0.00     0.221 HD
ENDBRANCH  44  48
ENDBRANCH  43  44
ENDBRANCH  24  43
BRANCH  19  50
HETATM   50  O   UNK N   1      20.864  11.186   3.917  0.00  0.00    -0.384 OA
HETATM   51  C   UNK N   1      21.300  11.405   5.239  0.00  0.00     0.202 C 
ENDBRANCH  19  50
TORSDOF 11
ENDMDL
MODEL 2
REMARK VINA RESULT:      -7.2      2.267      2.738
REMARK  11 active torsions:
REMARK  status: ('A' for Active; 'I' for Inactive)
REMARK    1  A    between atoms: C_13  and  C_12 
REMARK    2  A    between atoms: N_35  and  C_12 
REMARK    3  A    between atoms: N_38  and  C_13 
REMARK    4  A    between atoms: C_25  and  O_44 
REMARK    5  A    between atoms: C_26  and  O_45 
REMARK    6  A    between atoms: N_35  and  C_27 
REMARK    7  A    between atoms: C_28  and  O_40 
REMARK    8  A    between atoms: C_30  and  O_46 
REMARK    9  A    between atoms: O_42  and  C_31 
REMARK   10  A    between atoms: O_43  and  C_32 
REMARK   11  A    between atoms: O_46  and  C_32 
ROOT
HETATM    1  C   UNK N   1      24.260  19.799   3.711  0.00  0.00     0.010 C 
HETATM    2  C   UNK N   1      23.545   9.283   3.457  0.00  0.00     0.052 C 
HETATM    3  C   UNK N   1      20.857  16.383   4.798  0.00  0.00     0.017 C 
HETATM    4  C   UNK N   1      21.376  14.415   1.329  0.00  0.00     0.046 C 
HETATM    5  C   UNK N   1      20.853  10.284   2.794  0.00  0.00    -0.001 C 
HETATM    6  C   UNK N   1      21.996  11.198   3.064  0.00  0.00     0.011 C 
HETATM    7  C   UNK N   1      19.559  10.673   2.719  0.00  0.00     0.008 C 
HETATM    8  C   UNK N   1      23.745  17.722   4.927  0.00  0.00     0.049 C 
HETATM    9  C   UNK N   1      21.891  19.071   3.970  0.00  0.00     0.039 C 
HETATM   10  C   UNK N   1      19.674  15.210   2.994  0.00  0.00    -0.015 C 
HETATM   11  C   UNK N   1      26.086  14.004   4.580  0.00  0.00     0.090 C 
HETATM   12  C   UNK N   1      23.344  18.591   3.741  0.00  0.00    -0.012 C 
HETATM   13  C   UNK N   1      23.251  10.749   3.363  0.00  0.00    -0.011 C 
HETATM   14  C   UNK N   1      20.489  16.443   3.321  0.00  0.00     0.035 C 
HETATM   15  C   UNK N   1      20.086  14.279   2.088  0.00  0.00    -0.055 C 
HETATM   16  C   UNK N   1      24.676  16.543   4.690  0.00  0.00     0.025 C 
HETATM   17  C   UNK N   1      24.890  14.093   3.976  0.00  0.00     0.089 C 
HETATM   18  C   UNK N   1      26.703  15.229   5.157  0.00  0.00     0.201 C 
HETATM   19  C   UNK N   1      19.020  12.100   2.929  0.00  0.00     0.177 C 
HETATM   20  C   UNK N   1      20.943  18.905   2.755  0.00  0.00     0.150 C 
HETATM   21  C   UNK N   1      25.881  16.488   5.286  0.00  0.00     0.089 C 
HETATM   22  C   UNK N   1      19.854  17.800   2.956  0.00  0.00     0.154 C 
HETATM   23  C   UNK N   1      24.228  15.389   3.892  0.00  0.00     0.207 C 
HETATM   24  C   UNK N   1      19.200  13.105   1.730  0.00  0.00     0.193 C 
HETATM   25  C   UNK N   1      24.339  11.715   3.698  0.00  0.00     0.146 C 
HETATM   26  N   UNK N   1      24.109  12.972   3.571  0.00  0.00    -0.333 N 
ATOM     27  HN  UNK N   1      23.229  13.204   3.110  1.00  0.00     0.168 HD
HETATM   28  O   UNK N   1      27.825  15.159   5.636  0.00  0.00    -0.286 OA
HETATM   29  O   UNK N   1      23.252  15.480   3.187  0.00  0.00    -0.285 OA
ENDROOT
BRANCH  21  30
HETATM   30  N   UNK N   1      26.323  17.616   6.034  0.00  0.00    -0.385 N 
HETATM   31  H   UNK N   1      25.920  17.782   6.917  0.00  0.00     0.159 HD
BRANCH  30  32
HETATM   32  C   UNK N   1      27.329  18.521   5.557  0.00  0.00     0.150 C 
BRANCH  32  33
HETATM   33  C   UNK N   1      28.211  18.924   6.744  0.00  0.00     0.290 C 
BRANCH  33  34
HETATM   34  N   UNK N   1      28.508  17.822   7.657  0.00  0.00     0.081 N 
HETATM   35  C   UNK N   1      29.901  17.430   7.515  0.00  0.00     0.309 C 
HETATM   36  C   UNK N   1      28.270  18.225   9.036  0.00  0.00     0.309 C 
ENDBRANCH  33  34
ENDBRANCH  32  33
ENDBRANCH  30  32
ENDBRANCH  21  30
BRANCH  20  37
HETATM   37  O   UNK N   1      20.290  20.127   2.492  0.00  0.00    -0.388 OA
HETATM   38  C   UNK N   1      20.868  20.705   1.349  0.00  0.00     0.202 C 
ENDBRANCH  20  37
BRANCH  25  39
HETATM   39  O   UNK N   1      25.512  11.269   4.201  0.00  0.00    -0.346 OA
HETATM   40  H   UNK N   1      26.322  11.588   3.854  0.00  0.00     0.219 HD
ENDBRANCH  25  39
BRANCH  22  41
HETATM   41  O   UNK N   1      19.164  17.673   1.745  0.00  0.00    -0.392 OA
HETATM   42  H   UNK N   1      18.235  17.735   1.476  0.00  0.00     0.210 HD
ENDBRANCH  22  41
BRANCH  24  43
HETATM   43  O   UNK N   1      17.961  13.600   1.334  0.00  0.00    -0.304 OA
BRANCH  43  44
HETATM   44  C   UNK N   1      17.544  13.821   0.056  0.00  0.00     0.256 C 
HETATM   45  N   UNK N   1      17.650  14.995  -0.442  0.00  0.00    -0.359 N 
HETATM   46  H   UNK N   1      18.105  15.150  -1.301  0.00  0.00     0.160 HD
ATOM     47  HN  UNK N   1      17.253  15.789   0.063  1.00  0.00     0.160 HD
BRANCH  44  48
HETATM   48  O   UNK N   1      17.101  12.811  -0.721  0.00  0.00    -0.327 OA
HETATM   49  H   UNK N   1      16.997  11.884  -0.637  0.00  0.00     0.221 HD
ENDBRANCH  44  48
ENDBRANCH  43  44
ENDBRANCH  24  43
BRANCH  19  50
HETATM   50  O   UNK N   1      17.686  12.092   3.420  0.00  0.00    -0.384 OA
HETATM   51  C   UNK N   1      17.137  10.796   3.366  0.00  0.00     0.202 C 
ENDBRANCH  19  50
TORSDOF 11
ENDMDL
MODEL 3
REMARK VINA RESULT:      -6.8     12.016     15.110
REMARK  11 active torsions:
REMARK  status: ('A' for Active; 'I' for Inactive)
REMARK    1  A    between atoms: C_13  and  C_12 
REMARK    2  A    between atoms: N_35  and  C_12 
REMARK    3  A    between atoms: N_38  and  C_13 
REMARK    4  A    between atoms: C_25  and  O_44 
REMARK    5  A    between atoms: C_26  and  O_45 
REMARK    6  A    between atoms: N_35  and  C_27 
REMARK    7  A    between atoms: C_28  and  O_40 
REMARK    8  A    between atoms: C_30  and  O_46 
REMARK    9  A    between atoms: O_42  and  C_31 
REMARK   10  A    between atoms: O_43  and  C_32 
REMARK   11  A    between atoms: O_46  and  C_32 
ROOT
HETATM    1  C   UNK N   1      30.148  22.686  -2.415  0.00  0.00     0.010 C 
HETATM    2  C   UNK N   1      25.919  21.238 -11.963  0.00  0.00     0.052 C 
HETATM    3  C   UNK N   1      31.742  22.582  -7.092  0.00  0.00     0.017 C 
HETATM    4  C   UNK N   1      29.795  19.164  -7.933  0.00  0.00     0.046 C 
HETATM    5  C   UNK N   1      28.613  20.049 -12.093  0.00  0.00    -0.001 C 
HETATM    6  C   UNK N   1      28.079  20.673 -10.852  0.00  0.00     0.011 C 
HETATM    7  C   UNK N   1      29.908  19.703 -12.285  0.00  0.00     0.008 C 
HETATM    8  C   UNK N   1      29.856  23.533  -4.707  0.00  0.00     0.049 C 
HETATM    9  C   UNK N   1      31.927  22.295  -4.115  0.00  0.00     0.039 C 
HETATM   10  C   UNK N   1      31.929  20.440  -8.279  0.00  0.00    -0.015 C 
HETATM   11  C   UNK N   1      26.053  23.398  -6.931  0.00  0.00     0.090 C 
HETATM   12  C   UNK N   1      30.400  22.376  -3.878  0.00  0.00    -0.012 C 
HETATM   13  C   UNK N   1      26.830  21.221 -10.774  0.00  0.00    -0.011 C 
HETATM   14  C   UNK N   1      31.837  21.073  -6.907  0.00  0.00     0.035 C 
HETATM   15  C   UNK N   1      30.988  19.573  -8.749  0.00  0.00    -0.055 C 
HETATM   16  C   UNK N   1      28.464  23.413  -5.307  0.00  0.00     0.025 C 
HETATM   17  C   UNK N   1      27.034  22.534  -7.242  0.00  0.00     0.089 C 
HETATM   18  C   UNK N   1      26.173  24.222  -5.699  0.00  0.00     0.201 C 
HETATM   19  C   UNK N   1      31.066  19.915 -11.293  0.00  0.00     0.177 C 
HETATM   20  C   UNK N   1      32.470  20.877  -4.427  0.00  0.00     0.150 C 
HETATM   21  C   UNK N   1      27.488  24.273  -4.961  0.00  0.00     0.089 C 
HETATM   22  C   UNK N   1      32.950  20.701  -5.906  0.00  0.00     0.154 C 
HETATM   23  C   UNK N   1      28.190  22.421  -6.362  0.00  0.00     0.207 C 
HETATM   24  C   UNK N   1      31.163  18.899 -10.093  0.00  0.00     0.193 C 
HETATM   25  C   UNK N   1      26.380  21.901  -9.524  0.00  0.00     0.146 C 
HETATM   26  N   UNK N   1      27.134  21.846  -8.486  0.00  0.00    -0.333 N 
ATOM     27  HN  UNK N   1      27.929  21.211  -8.564  1.00  0.00     0.168 HD
HETATM   28  O   UNK N   1      25.245  24.948  -5.378  0.00  0.00    -0.286 OA
HETATM   29  O   UNK N   1      28.963  21.515  -6.558  0.00  0.00    -0.285 OA
ENDROOT
BRANCH  21  30
HETATM   30  N   UNK N   1      27.747  25.212  -3.922  0.00  0.00    -0.385 N 
HETATM   31  H   UNK N   1      27.788  24.889  -2.994  0.00  0.00     0.159 HD
BRANCH  30  32
HETATM   32  C   UNK N   1      27.952  26.610  -4.172  0.00  0.00     0.150 C 
BRANCH  32  33
HETATM   33  C   UNK N   1      26.839  27.390  -3.464  0.00  0.00     0.290 C 
BRANCH  33  34
HETATM   34  N   UNK N   1      26.157  28.356  -4.325  0.00  0.00     0.081 N 
HETATM   35  C   UNK N   1      26.409  29.704  -3.844  0.00  0.00     0.309 C 
HETATM   36  C   UNK N   1      26.639  28.245  -5.694  0.00  0.00     0.309 C 
ENDBRANCH  33  34
ENDBRANCH  32  33
ENDBRANCH  30  32
ENDBRANCH  21  30
BRANCH  20  37
HETATM   37  O   UNK N   1      33.554  20.585  -3.572  0.00  0.00    -0.388 OA
HETATM   38  C   UNK N   1      34.674  21.313  -4.008  0.00  0.00     0.202 C 
ENDBRANCH  20  37
BRANCH  25  39
HETATM   39  O   UNK N   1      25.238  22.625  -9.518  0.00  0.00    -0.346 OA
HETATM   40  H   UNK N   1      25.041  23.193 -10.236  0.00  0.00     0.219 HD
ENDBRANCH  25  39
BRANCH  22  41
HETATM   41  O   UNK N   1      33.286  19.353  -6.074  0.00  0.00    -0.392 OA
HETATM   42  H   UNK N   1      33.289  18.735  -6.821  0.00  0.00     0.210 HD
ENDBRANCH  22  41
BRANCH  24  43
HETATM   43  O   UNK N   1      32.403  18.267 -10.105  0.00  0.00    -0.304 OA
BRANCH  43  44
HETATM   44  C   UNK N   1      32.806  17.252  -9.291  0.00  0.00     0.256 C 
HETATM   45  N   UNK N   1      32.264  16.099  -9.415  0.00  0.00    -0.359 N 
HETATM   46  H   UNK N   1      32.807  15.286  -9.539  0.00  0.00     0.160 HD
ATOM     47  HN  UNK N   1      31.247  16.019  -9.384  1.00  0.00     0.160 HD
BRANCH  44  48
HETATM   48  O   UNK N   1      33.821  17.415  -8.417  0.00  0.00    -0.327 OA
HETATM   49  H   UNK N   1      34.212  16.915  -7.728  0.00  0.00     0.221 HD
ENDBRANCH  44  48
ENDBRANCH  43  44
ENDBRANCH  24  43
BRANCH  19  50
HETATM   50  O   UNK N   1      32.311  20.067 -11.962  0.00  0.00    -0.384 OA
HETATM   51  C   UNK N   1      32.783  21.390 -11.853  0.00  0.00     0.202 C 
ENDBRANCH  19  50
TORSDOF 11
ENDMDL
MODEL 4
REMARK VINA RESULT:      -6.7      4.541      9.854
REMARK  11 active torsions:
REMARK  status: ('A' for Active; 'I' for Inactive)
REMARK    1  A    between atoms: C_13  and  C_12 
REMARK    2  A    between atoms: N_35  and  C_12 
REMARK    3  A    between atoms: N_38  and  C_13 
REMARK    4  A    between atoms: C_25  and  O_44 
REMARK    5  A    between atoms: C_26  and  O_45 
REMARK    6  A    between atoms: N_35  and  C_27 
REMARK    7  A    between atoms: C_28  and  O_40 
REMARK    8  A    between atoms: C_30  and  O_46 
REMARK    9  A    between atoms: O_42  and  C_31 
REMARK   10  A    between atoms: O_43  and  C_32 
REMARK   11  A    between atoms: O_46  and  C_32 
ROOT
HETATM    1  C   UNK N   1      30.506  17.910   9.073  0.00  0.00     0.010 C 
HETATM    2  C   UNK N   1      28.819  11.710   0.715  0.00  0.00     0.052 C 
HETATM    3  C   UNK N   1      32.588  17.161   4.654  0.00  0.00     0.017 C 
HETATM    4  C   UNK N   1      32.618  13.162   5.077  0.00  0.00     0.046 C 
HETATM    5  C   UNK N   1      31.744  12.019   0.904  0.00  0.00    -0.001 C 
HETATM    6  C   UNK N   1      30.814  12.650   1.879  0.00  0.00     0.011 C 
HETATM    7  C   UNK N   1      33.061  12.312   0.796  0.00  0.00     0.008 C 
HETATM    8  C   UNK N   1      30.168  17.749   6.641  0.00  0.00     0.049 C 
HETATM    9  C   UNK N   1      32.474  17.937   7.545  0.00  0.00     0.039 C 
HETATM   10  C   UNK N   1      33.923  15.140   4.251  0.00  0.00    -0.015 C 
HETATM   11  C   UNK N   1      27.225  15.090   4.720  0.00  0.00     0.090 C 
HETATM   12  C   UNK N   1      31.073  17.329   7.792  0.00  0.00    -0.012 C 
HETATM   13  C   UNK N   1      29.457  12.509   1.809  0.00  0.00    -0.011 C 
HETATM   14  C   UNK N   1      33.356  16.035   5.332  0.00  0.00     0.035 C 
HETATM   15  C   UNK N   1      33.577  13.828   4.131  0.00  0.00    -0.055 C 
HETATM   16  C   UNK N   1      29.094  16.785   6.163  0.00  0.00     0.025 C 
HETATM   17  C   UNK N   1      28.529  14.771   4.685  0.00  0.00     0.089 C 
HETATM   18  C   UNK N   1      26.772  16.202   5.598  0.00  0.00     0.201 C 
HETATM   19  C   UNK N   1      33.834  13.359   1.620  0.00  0.00     0.177 C 
HETATM   20  C   UNK N   1      33.659  16.951   7.711  0.00  0.00     0.150 C 
HETATM   21  C   UNK N   1      27.792  17.115   6.232  0.00  0.00     0.089 C 
HETATM   22  C   UNK N   1      34.363  16.585   6.362  0.00  0.00     0.154 C 
HETATM   23  C   UNK N   1      29.468  15.516   5.513  0.00  0.00     0.207 C 
HETATM   24  C   UNK N   1      34.232  12.949   3.087  0.00  0.00     0.193 C 
HETATM   25  C   UNK N   1      28.572  13.229   2.773  0.00  0.00     0.146 C 
HETATM   26  N   UNK N   1      29.112  13.874   3.743  0.00  0.00    -0.333 N 
ATOM     27  HN  UNK N   1      30.115  13.722   3.856  1.00  0.00     0.168 HD
HETATM   28  O   UNK N   1      25.576  16.438   5.687  0.00  0.00    -0.286 OA
HETATM   29  O   UNK N   1      30.596  15.095   5.607  0.00  0.00    -0.285 OA
ENDROOT
BRANCH  21  30
HETATM   30  N   UNK N   1      27.432  18.328   6.884  0.00  0.00    -0.385 N 
HETATM   31  H   UNK N   1      27.156  18.292   7.829  0.00  0.00     0.159 HD
BRANCH  30  32
HETATM   32  C   UNK N   1      27.454  19.602   6.224  0.00  0.00     0.150 C 
BRANCH  32  33
HETATM   33  C   UNK N   1      26.017  19.964   5.834  0.00  0.00     0.290 C 
BRANCH  33  34
HETATM   34  N   UNK N   1      25.838  20.201   4.403  0.00  0.00     0.081 N 
HETATM   35  C   UNK N   1      27.064  19.873   3.694  0.00  0.00     0.309 C 
HETATM   36  C   UNK N   1      24.756  19.377   3.881  0.00  0.00     0.309 C 
ENDBRANCH  33  34
ENDBRANCH  32  33
ENDBRANCH  30  32
ENDBRANCH  21  30
BRANCH  20  37
HETATM   37  O   UNK N   1      34.622  17.508   8.577  0.00  0.00    -0.388 OA
HETATM   38  C   UNK N   1      34.581  16.813   9.797  0.00  0.00     0.202 C 
ENDBRANCH  20  37
BRANCH  25  39
HETATM   39  O   UNK N   1      27.235  13.262   2.572  0.00  0.00    -0.346 OA
HETATM   40  H   UNK N   1      26.738  14.004   2.856  0.00  0.00     0.219 HD
ENDBRANCH  25  39
BRANCH  22  41
HETATM   41  O   UNK N   1      35.315  15.599   6.647  0.00  0.00    -0.392 OA
HETATM   42  H   UNK N   1      35.332  14.631   6.604  0.00  0.00     0.210 HD
ENDBRANCH  22  41
BRANCH  24  43
HETATM   43  O   UNK N   1      35.612  13.037   3.248  0.00  0.00    -0.304 OA
BRANCH  43  44
HETATM   44  C   UNK N   1      36.334  12.621   4.326  0.00  0.00     0.256 C 
HETATM   45  N   UNK N   1      37.048  13.469   4.964  0.00  0.00    -0.359 N 
HETATM   46  H   UNK N   1      36.964  13.582   5.939  0.00  0.00     0.160 HD
ATOM     47  HN  UNK N   1      37.721  14.041   4.453  1.00  0.00     0.160 HD
BRANCH  44  48
HETATM   48  O   UNK N   1      36.245  11.355   4.782  0.00  0.00    -0.327 OA
HETATM   49  H   UNK N   1      36.547  10.510   4.510  0.00  0.00     0.221 HD
ENDBRANCH  44  48
ENDBRANCH  43  44
ENDBRANCH  24  43
BRANCH  19  50
HETATM   50  O   UNK N   1      34.939  13.886   0.897  0.00  0.00    -0.384 OA
HETATM   51  C   UNK N   1      35.224  13.095  -0.233  0.00  0.00     0.202 C 
ENDBRANCH  19  50
TORSDOF 11
ENDMDL
MODEL 5
REMARK VINA RESULT:      -6.5      2.416      9.499
REMARK  11 active torsions:
REMARK  status: ('A' for Active; 'I' for Inactive)
REMARK    1  A    between atoms: C_13  and  C_12 
REMARK    2  A    between atoms: N_35  and  C_12 
REMARK    3  A    between atoms: N_38  and  C_13 
REMARK    4  A    between atoms: C_25  and  O_44 
REMARK    5  A    between atoms: C_26  and  O_45 
REMARK    6  A    between atoms: N_35  and  C_27 
REMARK    7  A    between atoms: C_28  and  O_40 
REMARK    8  A    between atoms: C_30  and  O_46 
REMARK    9  A    between atoms: O_42  and  C_31 
REMARK   10  A    between atoms: O_43  and  C_32 
REMARK   11  A    between atoms: O_46  and  C_32 
ROOT
HETATM    1  C   UNK N   1      24.058  12.354   0.349  0.00  0.00     0.010 C 
HETATM    2  C   UNK N   1      27.812  19.776   6.828  0.00  0.00     0.052 C 
HETATM    3  C   UNK N   1      27.083  12.545   4.253  0.00  0.00     0.017 C 
HETATM    4  C   UNK N   1      29.195  15.630   2.769  0.00  0.00     0.046 C 
HETATM    5  C   UNK N   1      29.981  17.802   6.531  0.00  0.00    -0.001 C 
HETATM    6  C   UNK N   1      28.678  17.662   5.827  0.00  0.00     0.011 C 
HETATM    7  C   UNK N   1      30.914  16.825   6.623  0.00  0.00     0.008 C 
HETATM    8  C   UNK N   1      24.381  13.119   2.665  0.00  0.00     0.049 C 
HETATM    9  C   UNK N   1      25.963  11.470   1.690  0.00  0.00     0.039 C 
HETATM   10  C   UNK N   1      29.352  13.451   4.006  0.00  0.00    -0.015 C 
HETATM   11  C   UNK N   1      23.839  17.285   3.996  0.00  0.00     0.090 C 
HETATM   12  C   UNK N   1      25.104  12.720   1.385  0.00  0.00    -0.012 C 
HETATM   13  C   UNK N   1      27.667  18.572   5.948  0.00  0.00    -0.011 C 
HETATM   14  C   UNK N   1      28.178  12.873   3.245  0.00  0.00     0.035 C 
HETATM   15  C   UNK N   1      29.810  14.717   3.792  0.00  0.00    -0.055 C 
HETATM   16  C   UNK N   1      24.134  14.594   2.938  0.00  0.00     0.025 C 
HETATM   17  C   UNK N   1      25.080  16.790   3.855  0.00  0.00     0.089 C 
HETATM   18  C   UNK N   1      22.682  16.505   3.482  0.00  0.00     0.201 C 
HETATM   19  C   UNK N   1      30.800  15.396   6.061  0.00  0.00     0.177 C 
HETATM   20  C   UNK N   1      27.428  11.538   1.186  0.00  0.00     0.150 C 
HETATM   21  C   UNK N   1      22.881  15.074   3.049  0.00  0.00     0.089 C 
HETATM   22  C   UNK N   1      28.481  11.665   2.335  0.00  0.00     0.154 C 
HETATM   23  C   UNK N   1      25.264  15.504   3.196  0.00  0.00     0.207 C 
HETATM   24  C   UNK N   1      31.039  15.226   4.514  0.00  0.00     0.193 C 
HETATM   25  C   UNK N   1      26.354  18.338   5.276  0.00  0.00     0.146 C 
HETATM   26  N   UNK N   1      26.239  17.336   4.480  0.00  0.00    -0.333 N 
ATOM     27  HN  UNK N   1      27.112  16.856   4.262  1.00  0.00     0.168 HD
HETATM   28  O   UNK N   1      21.564  16.993   3.542  0.00  0.00    -0.286 OA
HETATM   29  O   UNK N   1      26.389  15.168   2.916  0.00  0.00    -0.285 OA
ENDROOT
BRANCH  21  30
HETATM   30  N   UNK N   1      21.792  14.199   2.773  0.00  0.00    -0.385 N 
HETATM   31  H   UNK N   1      21.543  13.528   3.448  0.00  0.00     0.159 HD
BRANCH  30  32
HETATM   32  C   UNK N   1      21.040  14.255   1.552  0.00  0.00     0.150 C 
BRANCH  32  33
HETATM   33  C   UNK N   1      20.447  12.866   1.292  0.00  0.00     0.290 C 
BRANCH  33  34
HETATM   34  N   UNK N   1      19.410  12.852   0.262  0.00  0.00     0.081 N 
HETATM   35  C   UNK N   1      18.648  11.618   0.349  0.00  0.00     0.309 C 
HETATM   36  C   UNK N   1      18.504  13.979   0.437  0.00  0.00     0.309 C 
ENDBRANCH  33  34
ENDBRANCH  32  33
ENDBRANCH  30  32
ENDBRANCH  21  30
BRANCH  20  37
HETATM   37  O   UNK N   1      27.726  10.380   0.438  0.00  0.00    -0.388 OA
HETATM   38  C   UNK N   1      27.300   9.257   1.165  0.00  0.00     0.202 C 
ENDBRANCH  20  37
BRANCH  25  39
HETATM   39  O   UNK N   1      25.292  19.122   5.568  0.00  0.00    -0.346 OA
HETATM   40  H   UNK N   1      25.015  19.223   6.458  0.00  0.00     0.219 HD
ENDBRANCH  25  39
BRANCH  22  41
HETATM   41  O   UNK N   1      29.731  11.846   1.733  0.00  0.00    -0.392 OA
HETATM   42  H   UNK N   1      30.346  11.276   1.245  0.00  0.00     0.210 HD
ENDBRANCH  22  41
BRANCH  24  43
HETATM   43  O   UNK N   1      32.079  14.328   4.289  0.00  0.00    -0.304 OA
BRANCH  43  44
HETATM   44  C   UNK N   1      32.735  14.120   3.114  0.00  0.00     0.256 C 
HETATM   45  N   UNK N   1      32.651  12.978   2.544  0.00  0.00    -0.359 N 
HETATM   46  H   UNK N   1      32.375  12.892   1.603  0.00  0.00     0.160 HD
ATOM     47  HN  UNK N   1      32.875  12.136   3.077  1.00  0.00     0.160 HD
BRANCH  44  48
HETATM   48  O   UNK N   1      33.402  15.119   2.499  0.00  0.00    -0.327 OA
HETATM   49  H   UNK N   1      34.060  15.743   2.734  0.00  0.00     0.221 HD
ENDBRANCH  44  48
ENDBRANCH  43  44
ENDBRANCH  24  43
BRANCH  19  50
HETATM   50  O   UNK N   1      31.563  14.469   6.822  0.00  0.00    -0.384 OA
HETATM   51  C   UNK N   1      32.313  15.129   7.815  0.00  0.00     0.202 C 
ENDBRANCH  19  50
TORSDOF 11
ENDMDL
MODEL 6
REMARK VINA RESULT:      -6.4     13.806     17.903
REMARK  11 active torsions:
REMARK  status: ('A' for Active; 'I' for Inactive)
REMARK    1  A    between atoms: C_13  and  C_12 
REMARK    2  A    between atoms: N_35  and  C_12 
REMARK    3  A    between atoms: N_38  and  C_13 
REMARK    4  A    between atoms: C_25  and  O_44 
REMARK    5  A    between atoms: C_26  and  O_45 
REMARK    6  A    between atoms: N_35  and  C_27 
REMARK    7  A    between atoms: C_28  and  O_40 
REMARK    8  A    between atoms: C_30  and  O_46 
REMARK    9  A    between atoms: O_42  and  C_31 
REMARK   10  A    between atoms: O_43  and  C_32 
REMARK   11  A    between atoms: O_46  and  C_32 
ROOT
HETATM    1  C   UNK N   1      35.972  11.148  19.509  0.00  0.00     0.010 C 
HETATM    2  C   UNK N   1      36.054   5.127  10.855  0.00  0.00     0.052 C 
HETATM    3  C   UNK N   1      33.998  11.307  14.980  0.00  0.00     0.017 C 
HETATM    4  C   UNK N   1      37.481  10.436  13.169  0.00  0.00     0.046 C 
HETATM    5  C   UNK N   1      35.943   7.911   9.891  0.00  0.00    -0.001 C 
HETATM    6  C   UNK N   1      35.997   7.573  11.339  0.00  0.00     0.011 C 
HETATM    7  C   UNK N   1      35.655   9.138   9.398  0.00  0.00     0.008 C 
HETATM    8  C   UNK N   1      34.669   9.963  17.790  0.00  0.00     0.049 C 
HETATM    9  C   UNK N   1      35.070  12.404  17.554  0.00  0.00     0.039 C 
HETATM   10  C   UNK N   1      35.408  11.845  13.043  0.00  0.00    -0.015 C 
HETATM   11  C   UNK N   1      35.662   5.953  16.255  0.00  0.00     0.090 C 
HETATM   12  C   UNK N   1      35.694  11.067  18.020  0.00  0.00    -0.012 C 
HETATM   13  C   UNK N   1      36.058   6.289  11.801  0.00  0.00    -0.011 C 
HETATM   14  C   UNK N   1      35.315  11.939  14.551  0.00  0.00     0.035 C 
HETATM   15  C   UNK N   1      36.396  11.148  12.413  0.00  0.00    -0.055 C 
HETATM   16  C   UNK N   1      35.158   8.579  17.396  0.00  0.00     0.025 C 
HETATM   17  C   UNK N   1      35.912   7.034  15.498  0.00  0.00     0.089 C 
HETATM   18  C   UNK N   1      35.275   6.137  17.680  0.00  0.00     0.201 C 
HETATM   19  C   UNK N   1      35.300  10.392  10.218  0.00  0.00     0.177 C 
HETATM   20  C   UNK N   1      35.977  13.271  16.643  0.00  0.00     0.150 C 
HETATM   21  C   UNK N   1      34.919   7.514  18.184  0.00  0.00     0.089 C 
HETATM   22  C   UNK N   1      35.486  13.346  15.160  0.00  0.00     0.154 C 
HETATM   23  C   UNK N   1      35.805   8.361  16.091  0.00  0.00     0.207 C 
HETATM   24  C   UNK N   1      36.499  11.150  10.903  0.00  0.00     0.193 C 
HETATM   25  C   UNK N   1      36.034   6.011  13.267  0.00  0.00     0.146 C 
HETATM   26  N   UNK N   1      36.088   7.001  14.084  0.00  0.00    -0.333 N 
ATOM     27  HN  UNK N   1      36.287   7.904  13.653  1.00  0.00     0.168 HD
HETATM   28  O   UNK N   1      35.125   5.152  18.386  0.00  0.00    -0.286 OA
HETATM   29  O   UNK N   1      36.211   9.300  15.450  0.00  0.00    -0.285 OA
ENDROOT
BRANCH  21  30
HETATM   30  N   UNK N   1      34.318   7.731  19.457  0.00  0.00    -0.385 N 
HETATM   31  H   UNK N   1      34.842   8.188  20.153  0.00  0.00     0.159 HD
BRANCH  30  32
HETATM   32  C   UNK N   1      32.981   7.313  19.767  0.00  0.00     0.150 C 
BRANCH  32  33
HETATM   33  C   UNK N   1      32.110   8.566  19.914  0.00  0.00     0.290 C 
BRANCH  33  34
HETATM   34  N   UNK N   1      31.730   8.859  21.295  0.00  0.00     0.081 N 
HETATM   35  C   UNK N   1      31.903   7.671  22.114  0.00  0.00     0.309 C 
HETATM   36  C   UNK N   1      32.557   9.929  21.834  0.00  0.00     0.309 C 
ENDBRANCH  33  34
ENDBRANCH  32  33
ENDBRANCH  30  32
ENDBRANCH  21  30
BRANCH  20  37
HETATM   37  O   UNK N   1      36.045  14.584  17.154  0.00  0.00    -0.388 OA
HETATM   38  C   UNK N   1      35.316  14.634  18.354  0.00  0.00     0.202 C 
ENDBRANCH  20  37
BRANCH  25  39
HETATM   39  O   UNK N   1      35.876   4.745  13.716  0.00  0.00    -0.346 OA
HETATM   40  H   UNK N   1      35.174   4.217  13.391  0.00  0.00     0.219 HD
ENDBRANCH  25  39
BRANCH  22  41
HETATM   41  O   UNK N   1      36.459  14.045  14.437  0.00  0.00    -0.392 OA
HETATM   42  H   UNK N   1      36.752  14.052  13.512  0.00  0.00     0.210 HD
ENDBRANCH  22  41
BRANCH  24  43
HETATM   43  O   UNK N   1      36.535  12.472  10.471  0.00  0.00    -0.304 OA
BRANCH  43  44
HETATM   44  C   UNK N   1      37.397  13.441  10.887  0.00  0.00     0.256 C 
HETATM   45  N   UNK N   1      36.928  14.545  11.333  0.00  0.00    -0.359 N 
HETATM   46  H   UNK N   1      37.197  14.901  12.211  0.00  0.00     0.160 HD
ATOM     47  HN  UNK N   1      36.260  15.069  10.767  1.00  0.00     0.160 HD
BRANCH  44  48
HETATM   48  O   UNK N   1      38.729  13.228  10.918  0.00  0.00    -0.327 OA
HETATM   49  H   UNK N   1      39.375  13.054  11.574  0.00  0.00     0.221 HD
ENDBRANCH  44  48
ENDBRANCH  43  44
ENDBRANCH  24  43
BRANCH  19  50
HETATM   50  O   UNK N   1      34.459  11.277   9.489  0.00  0.00    -0.384 OA
HETATM   51  C   UNK N   1      33.152  10.762   9.392  0.00  0.00     0.202 C 
ENDBRANCH  19  50
TORSDOF 11
ENDMDL
MODEL 7
REMARK VINA RESULT:      -6.4      9.320     13.973
REMARK  11 active torsions:
REMARK  status: ('A' for Active; 'I' for Inactive)
REMARK    1  A    between atoms: C_13  and  C_12 
REMARK    2  A    between atoms: N_35  and  C_12 
REMARK    3  A    between atoms: N_38  and  C_13 
REMARK    4  A    between atoms: C_25  and  O_44 
REMARK    5  A    between atoms: C_26  and  O_45 
REMARK    6  A    between atoms: N_35  and  C_27 
REMARK    7  A    between atoms: C_28  and  O_40 
REMARK    8  A    between atoms: C_30  and  O_46 
REMARK    9  A    between atoms: O_42  and  C_31 
REMARK   10  A    between atoms: O_43  and  C_32 
REMARK   11  A    between atoms: O_46  and  C_32 
ROOT
HETATM    1  C   UNK N   1      35.304   9.146  13.001  0.00  0.00     0.010 C 
HETATM    2  C   UNK N   1      34.576  18.473   8.141  0.00  0.00     0.052 C 
HETATM    3  C   UNK N   1      36.396  10.992   8.548  0.00  0.00     0.017 C 
HETATM    4  C   UNK N   1      32.814  12.775   8.143  0.00  0.00     0.046 C 
HETATM    5  C   UNK N   1      34.101  16.446   6.056  0.00  0.00    -0.001 C 
HETATM    6  C   UNK N   1      34.356  16.080   7.475  0.00  0.00     0.011 C 
HETATM    7  C   UNK N   1      34.112  15.571   5.022  0.00  0.00     0.008 C 
HETATM    8  C   UNK N   1      36.442  10.921  11.733  0.00  0.00     0.049 C 
HETATM    9  C   UNK N   1      35.648   8.888  10.546  0.00  0.00     0.039 C 
HETATM   10  C   UNK N   1      34.600  11.480   6.946  0.00  0.00    -0.015 C 
HETATM   11  C   UNK N   1      35.797  15.232  12.385  0.00  0.00     0.090 C 
HETATM   12  C   UNK N   1      35.322   9.890  11.680  0.00  0.00    -0.012 C 
HETATM   13  C   UNK N   1      34.569  17.008   8.454  0.00  0.00    -0.011 C 
HETATM   14  C   UNK N   1      34.944  10.697   8.195  0.00  0.00     0.035 C 
HETATM   15  C   UNK N   1      33.630  12.438   6.928  0.00  0.00    -0.055 C 
HETATM   16  C   UNK N   1      36.101  12.355  12.109  0.00  0.00     0.025 C 
HETATM   17  C   UNK N   1      35.259  14.636  11.308  0.00  0.00     0.089 C 
HETATM   18  C   UNK N   1      36.399  14.393  13.456  0.00  0.00     0.201 C 
HETATM   19  C   UNK N   1      34.417  14.064   5.104  0.00  0.00     0.177 C 
HETATM   20  C   UNK N   1      34.476   8.586   9.578  0.00  0.00     0.150 C 
HETATM   21  C   UNK N   1      36.631  12.923  13.209  0.00  0.00     0.089 C 
HETATM   22  C   UNK N   1      34.679   9.178   8.144  0.00  0.00     0.154 C 
HETATM   23  C   UNK N   1      35.272  13.182  11.217  0.00  0.00     0.207 C 
HETATM   24  C   UNK N   1      33.261  13.138   5.637  0.00  0.00     0.193 C 
HETATM   25  C   UNK N   1      34.894  16.577   9.846  0.00  0.00     0.146 C 
HETATM   26  N   UNK N   1      34.841  15.327  10.133  0.00  0.00    -0.333 N 
ATOM     27  HN  UNK N   1      34.437  14.735   9.407  1.00  0.00     0.168 HD
HETATM   28  O   UNK N   1      36.817  14.933  14.469  0.00  0.00    -0.286 OA
HETATM   29  O   UNK N   1      34.623  12.666  10.339  0.00  0.00    -0.285 OA
ENDROOT
BRANCH  21  30
HETATM   30  N   UNK N   1      37.410  12.113  14.084  0.00  0.00    -0.385 N 
HETATM   31  H   UNK N   1      38.306  11.829  13.790  0.00  0.00     0.159 HD
BRANCH  30  32
HETATM   32  C   UNK N   1      36.946  11.695  15.375  0.00  0.00     0.150 C 
BRANCH  32  33
HETATM   33  C   UNK N   1      35.417  11.806  15.393  0.00  0.00     0.290 C 
BRANCH  33  34
HETATM   34  N   UNK N   1      34.860  12.032  16.726  0.00  0.00     0.081 N 
HETATM   35  C   UNK N   1      35.394  11.050  17.654  0.00  0.00     0.309 C 
HETATM   36  C   UNK N   1      35.202  13.365  17.201  0.00  0.00     0.309 C 
ENDBRANCH  33  34
ENDBRANCH  32  33
ENDBRANCH  30  32
ENDBRANCH  21  30
BRANCH  20  37
HETATM   37  O   UNK N   1      34.306   7.190   9.460  0.00  0.00    -0.388 OA
HETATM   38  C   UNK N   1      33.437   6.760  10.476  0.00  0.00     0.202 C 
ENDBRANCH  20  37
BRANCH  25  39
HETATM   39  O   UNK N   1      35.315  17.484  10.757  0.00  0.00    -0.346 OA
HETATM   40  H   UNK N   1      34.845  18.287  10.870  0.00  0.00     0.219 HD
ENDBRANCH  25  39
BRANCH  22  41
HETATM   41  O   UNK N   1      33.500   8.942   7.428  0.00  0.00    -0.392 OA
HETATM   42  H   UNK N   1      33.226   8.307   6.749  0.00  0.00     0.210 HD
ENDBRANCH  22  41
BRANCH  24  43
HETATM   43  O   UNK N   1      32.953  12.167   4.689  0.00  0.00    -0.304 OA
BRANCH  43  44
HETATM   44  C   UNK N   1      31.719  11.882   4.186  0.00  0.00     0.256 C 
HETATM   45  N   UNK N   1      31.497  12.059   2.938  0.00  0.00    -0.359 N 
HETATM   46  H   UNK N   1      31.128  11.340   2.375  0.00  0.00     0.160 HD
ATOM     47  HN  UNK N   1      31.706  12.965   2.517  1.00  0.00     0.160 HD
BRANCH  44  48
HETATM   48  O   UNK N   1      30.756  11.340   4.959  0.00  0.00    -0.327 OA
HETATM   49  H   UNK N   1      30.576  11.275   5.877  0.00  0.00     0.221 HD
ENDBRANCH  44  48
ENDBRANCH  43  44
ENDBRANCH  24  43
BRANCH  19  50
HETATM   50  O   UNK N   1      34.975  13.574   3.892  0.00  0.00    -0.384 OA
HETATM   51  C   UNK N   1      36.296  13.127   4.090  0.00  0.00     0.202 C 
ENDBRANCH  19  50
TORSDOF 11
ENDMDL
MODEL 8
REMARK VINA RESULT:      -6.3      2.628      9.154
REMARK  11 active torsions:
REMARK  status: ('A' for Active; 'I' for Inactive)
REMARK    1  A    between atoms: C_13  and  C_12 
REMARK    2  A    between atoms: N_35  and  C_12 
REMARK    3  A    between atoms: N_38  and  C_13 
REMARK    4  A    between atoms: C_25  and  O_44 
REMARK    5  A    between atoms: C_26  and  O_45 
REMARK    6  A    between atoms: N_35  and  C_27 
REMARK    7  A    between atoms: C_28  and  O_40 
REMARK    8  A    between atoms: C_30  and  O_46 
REMARK    9  A    between atoms: O_42  and  C_31 
REMARK   10  A    between atoms: O_43  and  C_32 
REMARK   11  A    between atoms: O_46  and  C_32 
ROOT
HETATM    1  C   UNK N   1      23.988  12.381   0.393  0.00  0.00     0.010 C 
HETATM    2  C   UNK N   1      27.812  19.783   6.853  0.00  0.00     0.052 C 
HETATM    3  C   UNK N   1      27.057  12.561   4.263  0.00  0.00     0.017 C 
HETATM    4  C   UNK N   1      29.151  15.651   2.766  0.00  0.00     0.046 C 
HETATM    5  C   UNK N   1      29.978  17.811   6.526  0.00  0.00    -0.001 C 
HETATM    6  C   UNK N   1      28.667  17.673   5.836  0.00  0.00     0.011 C 
HETATM    7  C   UNK N   1      30.913  16.835   6.605  0.00  0.00     0.008 C 
HETATM    8  C   UNK N   1      24.337  13.138   2.708  0.00  0.00     0.049 C 
HETATM    9  C   UNK N   1      25.908  11.493   1.710  0.00  0.00     0.039 C 
HETATM   10  C   UNK N   1      29.323  13.468   3.994  0.00  0.00    -0.015 C 
HETATM   11  C   UNK N   1      23.809  17.301   4.058  0.00  0.00     0.090 C 
HETATM   12  C   UNK N   1      25.045  12.744   1.418  0.00  0.00    -0.012 C 
HETATM   13  C   UNK N   1      27.657  18.583   5.971  0.00  0.00    -0.011 C 
HETATM   14  C   UNK N   1      28.140  12.892   3.245  0.00  0.00     0.035 C 
HETATM   15  C   UNK N   1      29.778  14.735   3.779  0.00  0.00    -0.055 C 
HETATM   16  C   UNK N   1      24.092  14.613   2.988  0.00  0.00     0.025 C 
HETATM   17  C   UNK N   1      25.048  16.806   3.902  0.00  0.00     0.089 C 
HETATM   18  C   UNK N   1      22.646  16.521   3.554  0.00  0.00     0.201 C 
HETATM   19  C   UNK N   1      30.793  15.407   6.039  0.00  0.00     0.177 C 
HETATM   20  C   UNK N   1      27.367  11.563   1.190  0.00  0.00     0.150 C 
HETATM   21  C   UNK N   1      22.841  15.091   3.115  0.00  0.00     0.089 C 
HETATM   22  C   UNK N   1      28.433  11.687   2.328  0.00  0.00     0.154 C 
HETATM   23  C   UNK N   1      25.225  15.522   3.237  0.00  0.00     0.207 C 
HETATM   24  C   UNK N   1      31.015  15.242   4.489  0.00  0.00     0.193 C 
HETATM   25  C   UNK N   1      26.338  18.350   5.313  0.00  0.00     0.146 C 
HETATM   26  N   UNK N   1      26.214  17.351   4.516  0.00  0.00    -0.333 N 
ATOM     27  HN  UNK N   1      27.085  16.871   4.286  1.00  0.00     0.168 HD
HETATM   28  O   UNK N   1      21.528  17.009   3.628  0.00  0.00    -0.286 OA
HETATM   29  O   UNK N   1      26.347  15.188   2.943  0.00  0.00    -0.285 OA
ENDROOT
BRANCH  21  30
HETATM   30  N   UNK N   1      21.749  14.217   2.848  0.00  0.00    -0.385 N 
HETATM   31  H   UNK N   1      21.671  13.821   1.950  0.00  0.00     0.159 HD
BRANCH  30  32
HETATM   32  C   UNK N   1      20.757  13.889   3.832  0.00  0.00     0.150 C 
BRANCH  32  33
HETATM   33  C   UNK N   1      21.461  13.207   5.010  0.00  0.00     0.290 C 
BRANCH  33  34
HETATM   34  N   UNK N   1      20.916  13.578   6.315  0.00  0.00     0.081 N 
HETATM   35  C   UNK N   1      21.437  12.685   7.336  0.00  0.00     0.309 C 
HETATM   36  C   UNK N   1      21.287  14.946   6.650  0.00  0.00     0.309 C 
ENDBRANCH  33  34
ENDBRANCH  32  33
ENDBRANCH  30  32
ENDBRANCH  21  30
BRANCH  20  37
HETATM   37  O   UNK N   1      27.657  10.408   0.435  0.00  0.00    -0.388 OA
HETATM   38  C   UNK N   1      26.824   9.367   0.874  0.00  0.00     0.202 C 
ENDBRANCH  20  37
BRANCH  25  39
HETATM   39  O   UNK N   1      25.278  19.132   5.619  0.00  0.00    -0.346 OA
HETATM   40  H   UNK N   1      24.605  18.808   6.185  0.00  0.00     0.219 HD
ENDBRANCH  25  39
BRANCH  22  41
HETATM   41  O   UNK N   1      29.676  11.871   1.712  0.00  0.00    -0.392 OA
HETATM   42  H   UNK N   1      30.137  11.462   0.963  0.00  0.00     0.210 HD
ENDBRANCH  22  41
BRANCH  24  43
HETATM   43  O   UNK N   1      32.052  14.345   4.250  0.00  0.00    -0.304 OA
BRANCH  43  44
HETATM   44  C   UNK N   1      33.313  14.650   3.838  0.00  0.00     0.256 C 
HETATM   45  N   UNK N   1      34.264  14.664   4.694  0.00  0.00    -0.359 N 
HETATM   46  H   UNK N   1      35.090  14.147   4.553  0.00  0.00     0.160 HD
ATOM     47  HN  UNK N   1      34.165  15.224   5.542  1.00  0.00     0.160 HD
BRANCH  44  48
HETATM   48  O   UNK N   1      33.595  14.855   2.534  0.00  0.00    -0.327 OA
HETATM   49  H   UNK N   1      33.334  15.462   1.869  0.00  0.00     0.221 HD
ENDBRANCH  44  48
ENDBRANCH  43  44
ENDBRANCH  24  43
BRANCH  19  50
HETATM   50  O   UNK N   1      31.564  14.478   6.789  0.00  0.00    -0.384 OA
HETATM   51  C   UNK N   1      32.317  15.134   7.782  0.00  0.00     0.202 C 
ENDBRANCH  19  50
TORSDOF 11
ENDMDL
MODEL 9
REMARK VINA RESULT:      -6.2      2.450      3.195
REMARK  11 active torsions:
REMARK  status: ('A' for Active; 'I' for Inactive)
REMARK    1  A    between atoms: C_13  and  C_12 
REMARK    2  A    between atoms: N_35  and  C_12 
REMARK    3  A    between atoms: N_38  and  C_13 
REMARK    4  A    between atoms: C_25  and  O_44 
REMARK    5  A    between atoms: C_26  and  O_45 
REMARK    6  A    between atoms: N_35  and  C_27 
REMARK    7  A    between atoms: C_28  and  O_40 
REMARK    8  A    between atoms: C_30  and  O_46 
REMARK    9  A    between atoms: O_42  and  C_31 
REMARK   10  A    between atoms: O_43  and  C_32 
REMARK   11  A    between atoms: O_46  and  C_32 
ROOT
HETATM    1  C   UNK N   1      29.500  17.751   5.240  0.00  0.00     0.010 C 
HETATM    2  C   UNK N   1      25.273   9.478   0.256  0.00  0.00     0.052 C 
HETATM    3  C   UNK N   1      25.248  15.234   5.385  0.00  0.00     0.017 C 
HETATM    4  C   UNK N   1      24.787  15.313   1.390  0.00  0.00     0.046 C 
HETATM    5  C   UNK N   1      23.030  11.304   0.819  0.00  0.00    -0.001 C 
HETATM    6  C   UNK N   1      24.431  11.627   1.199  0.00  0.00     0.011 C 
HETATM    7  C   UNK N   1      21.939  11.979   1.253  0.00  0.00     0.008 C 
HETATM    8  C   UNK N   1      28.419  15.548   5.421  0.00  0.00     0.049 C 
HETATM    9  C   UNK N   1      27.054  17.606   5.694  0.00  0.00     0.039 C 
HETATM   10  C   UNK N   1      23.595  15.511   3.590  0.00  0.00    -0.015 C 
HETATM   11  C   UNK N   1      29.337  12.117   2.811  0.00  0.00     0.090 C 
HETATM   12  C   UNK N   1      28.236  16.975   4.920  0.00  0.00    -0.012 C 
HETATM   13  C   UNK N   1      25.483  10.795   0.938  0.00  0.00    -0.011 C 
HETATM   14  C   UNK N   1      24.802  16.145   4.248  0.00  0.00     0.035 C 
HETATM   15  C   UNK N   1      23.594  15.123   2.283  0.00  0.00    -0.055 C 
HETATM   16  C   UNK N   1      28.876  14.480   4.440  0.00  0.00     0.025 C 
HETATM   17  C   UNK N   1      28.195  12.801   2.630  0.00  0.00     0.089 C 
HETATM   18  C   UNK N   1      30.375  12.664   3.725  0.00  0.00     0.201 C 
HETATM   19  C   UNK N   1      21.931  13.168   2.232  0.00  0.00     0.177 C 
HETATM   20  C   UNK N   1      26.008  18.339   4.815  0.00  0.00     0.150 C 
HETATM   21  C   UNK N   1      30.038  13.826   4.626  0.00  0.00     0.089 C 
HETATM   22  C   UNK N   1      24.632  17.600   4.731  0.00  0.00     0.154 C 
HETATM   23  C   UNK N   1      28.003  14.065   3.329  0.00  0.00     0.207 C 
HETATM   24  C   UNK N   1      22.339  14.570   1.643  0.00  0.00     0.193 C 
HETATM   25  C   UNK N   1      26.856  11.141   1.411  0.00  0.00     0.146 C 
HETATM   26  N   UNK N   1      27.051  12.290   1.950  0.00  0.00    -0.333 N 
ATOM     27  HN  UNK N   1      26.266  12.937   1.882  1.00  0.00     0.168 HD
HETATM   28  O   UNK N   1      31.443  12.080   3.827  0.00  0.00    -0.286 OA
HETATM   29  O   UNK N   1      27.059  14.748   3.011  0.00  0.00    -0.285 OA
ENDROOT
BRANCH  21  30
HETATM   30  N   UNK N   1      30.893  14.247   5.684  0.00  0.00    -0.385 N 
HETATM   31  H   UNK N   1      30.674  13.974   6.604  0.00  0.00     0.159 HD
BRANCH  30  32
HETATM   32  C   UNK N   1      32.061  15.052   5.467  0.00  0.00     0.150 C 
BRANCH  32  33
HETATM   33  C   UNK N   1      32.739  15.287   6.822  0.00  0.00     0.290 C 
BRANCH  33  34
HETATM   34  N   UNK N   1      31.856  15.877   7.826  0.00  0.00     0.081 N 
HETATM   35  C   UNK N   1      32.138  15.296   9.129  0.00  0.00     0.309 C 
HETATM   36  C   UNK N   1      32.058  17.317   7.898  0.00  0.00     0.309 C 
ENDBRANCH  33  34
ENDBRANCH  32  33
ENDBRANCH  30  32
ENDBRANCH  21  30
BRANCH  20  37
HETATM   37  O   UNK N   1      25.785  19.635   5.325  0.00  0.00    -0.388 OA
HETATM   38  C   UNK N   1      26.801  20.481   4.851  0.00  0.00     0.202 C 
ENDBRANCH  20  37
BRANCH  25  39
HETATM   39  O   UNK N   1      27.848  10.225   1.343  0.00  0.00    -0.346 OA
HETATM   40  H   UNK N   1      28.522  10.216   1.994  0.00  0.00     0.219 HD
ENDBRANCH  25  39
BRANCH  22  41
HETATM   41  O   UNK N   1      23.842  18.299   3.812  0.00  0.00    -0.392 OA
HETATM   42  H   UNK N   1      23.397  19.161   3.806  0.00  0.00     0.210 HD
ENDBRANCH  22  41
BRANCH  24  43
HETATM   43  O   UNK N   1      21.310  15.487   1.841  0.00  0.00    -0.304 OA
BRANCH  43  44
HETATM   44  C   UNK N   1      20.299  15.774   0.975  0.00  0.00     0.256 C 
HETATM   45  N   UNK N   1      19.188  15.149   1.082  0.00  0.00    -0.359 N 
HETATM   46  H   UNK N   1      18.332  15.630   1.153  0.00  0.00     0.160 HD
ATOM     47  HN  UNK N   1      19.188  14.128   1.093  1.00  0.00     0.160 HD
BRANCH  44  48
HETATM   48  O   UNK N   1      20.417  16.762   0.063  0.00  0.00    -0.327 OA
HETATM   49  H   UNK N   1      20.711  16.838  -0.823  0.00  0.00     0.221 HD
ENDBRANCH  44  48
ENDBRANCH  43  44
ENDBRANCH  24  43
BRANCH  19  50
HETATM   50  O   UNK N   1      20.717  13.233   2.969  0.00  0.00    -0.384 OA
HETATM   51  C   UNK N   1      20.937  12.931   4.328  0.00  0.00     0.202 C 
ENDBRANCH  19  50
TORSDOF 11
ENDMDL
