MODEL 1
REMARK VINA RESULT:      -6.3      0.000      0.000
REMARK  6 active torsions:
REMARK  status: ('A' for Active; 'I' for Inactive)
REMARK       I    between atoms: C_8  and  N_21 
REMARK    1  A    between atoms: N_12  and  C_13 
REMARK    2  A    between atoms: C_13  and  C_14 
REMARK    3  A    between atoms: C_16  and  C_17 
REMARK    4  A    between atoms: C_16  and  C_19 
REMARK    5  A    between atoms: C_17  and  O_18 
REMARK    6  A    between atoms: C_19  and  O_20 
ROOT
HETATM    1  C   UNK N   1      23.243  18.404   4.599  0.00  0.00     0.190 A 
HETATM    2  N   UNK N   1      21.982  17.889   4.502  0.00  0.00    -0.344 N 
ATOM      3  HN  UNK N   1      21.577  17.122   5.036  1.00  0.00     0.167 HD
HETATM    4  C   UNK N   1      21.395  18.628   3.542  0.00  0.00     0.148 A 
HETATM    5  C   UNK N   1      20.101  18.584   3.044  0.00  0.00     0.290 A 
HETATM    6  O   UNK N   1      19.285  17.784   3.467  0.00  0.00    -0.265 OA
HETATM    7  N   UNK N   1      19.758  19.483   2.058  0.00  0.00    -0.154 N 
HETATM    8  C   UNK N   1      20.670  20.400   1.591  0.00  0.00     0.680 A 
HETATM    9  N   UNK N   1      21.939  20.438   2.107  0.00  0.00    -0.174 N 
ATOM     10  HN  UNK N   1      22.619  21.122   1.777  1.00  0.00     0.186 HD
HETATM   11  C   UNK N   1      22.266  19.541   3.068  0.00  0.00     0.161 A 
HETATM   12  N   UNK N   1      23.429  19.420   3.717  0.00  0.00    -0.302 N 
HETATM   13  N   UNK N   1      20.298  21.306   0.580  0.00  0.00    -0.234 N 
HETATM   14  H   UNK N   1      18.848  19.471   1.684  0.00  0.00     0.187 HD
HETATM   15  H   UNK N   1      20.939  21.984   0.263  0.00  0.00     0.174 HD
HETATM   16  H   UNK N   1      19.396  21.262   0.188  0.00  0.00     0.174 HD
ENDROOT
BRANCH  12  17
HETATM   17  C   UNK N   1      24.557  20.300   3.585  0.00  0.00     0.103 C 
BRANCH  17  18
HETATM   18  C   UNK N   1      25.713  20.102   4.228  0.00  0.00    -0.050 A 
HETATM   19  C   UNK N   1      27.037  20.177   3.799  0.00  0.00     0.055 A 
HETATM   20  C   UNK N   1      26.554  19.985   5.375  0.00  0.00     0.031 A 
BRANCH  20  21
HETATM   21  C   UNK N   1      27.444  18.812   5.789  0.00  0.00     0.180 C 
BRANCH  21  22
HETATM   22  O   UNK N   1      27.454  18.639   7.177  0.00  0.00    -0.400 OA
HETATM   23  H   UNK N   1      27.266  19.385   7.767  0.00  0.00     0.209 HD
ENDBRANCH  21  22
ENDBRANCH  20  21
BRANCH  20  24
HETATM   24  C   UNK N   1      26.537  21.242   6.223  0.00  0.00     0.180 C 
BRANCH  24  25
HETATM   25  O   UNK N   1      26.001  20.933   7.476  0.00  0.00    -0.400 OA
HETATM   26  H   UNK N   1      25.496  20.134   7.696  0.00  0.00     0.209 HD
ENDBRANCH  24  25
ENDBRANCH  20  24
ENDBRANCH  17  18
ENDBRANCH  12  17
TORSDOF 6
ENDMDL
MODEL 2
REMARK VINA RESULT:      -6.2      4.926      7.199
REMARK  6 active torsions:
REMARK  status: ('A' for Active; 'I' for Inactive)
REMARK       I    between atoms: C_8  and  N_21 
REMARK    1  A    between atoms: N_12  and  C_13 
REMARK    2  A    between atoms: C_13  and  C_14 
REMARK    3  A    between atoms: C_16  and  C_17 
REMARK    4  A    between atoms: C_16  and  C_19 
REMARK    5  A    between atoms: C_17  and  O_18 
REMARK    6  A    between atoms: C_19  and  O_20 
ROOT
HETATM    1  C   UNK N   1      29.283  17.726   4.725  0.00  0.00     0.190 A 
HETATM    2  N   UNK N   1      28.499  18.500   3.918  0.00  0.00    -0.344 N 
ATOM      3  HN  UNK N   1      28.460  18.503   2.899  1.00  0.00     0.167 HD
HETATM    4  C   UNK N   1      27.788  19.258   4.774  0.00  0.00     0.148 A 
HETATM    5  C   UNK N   1      26.803  20.203   4.528  0.00  0.00     0.290 A 
HETATM    6  O   UNK N   1      26.453  20.473   3.392  0.00  0.00    -0.265 OA
HETATM    7  N   UNK N   1      26.220  20.824   5.610  0.00  0.00    -0.154 N 
HETATM    8  C   UNK N   1      26.599  20.508   6.893  0.00  0.00     0.680 A 
HETATM    9  N   UNK N   1      27.564  19.560   7.116  0.00  0.00    -0.174 N 
ATOM     10  HN  UNK N   1      27.843  19.310   8.064  1.00  0.00     0.186 HD
HETATM   11  C   UNK N   1      28.135  18.965   6.043  0.00  0.00     0.161 A 
HETATM   12  N   UNK N   1      29.069  18.007   6.036  0.00  0.00    -0.302 N 
HETATM   13  N   UNK N   1      25.993  21.160   7.984  0.00  0.00    -0.234 N 
HETATM   14  H   UNK N   1      25.522  21.502   5.464  0.00  0.00     0.187 HD
HETATM   15  H   UNK N   1      26.240  20.916   8.906  0.00  0.00     0.174 HD
HETATM   16  H   UNK N   1      25.320  21.861   7.825  0.00  0.00     0.174 HD
ENDROOT
BRANCH  12  17
HETATM   17  C   UNK N   1      29.593  17.340   7.195  0.00  0.00     0.103 C 
BRANCH  17  18
HETATM   18  C   UNK N   1      30.903  17.243   7.449  0.00  0.00    -0.050 A 
HETATM   19  C   UNK N   1      31.616  16.463   8.357  0.00  0.00     0.055 A 
HETATM   20  C   UNK N   1      32.292  17.395   7.163  0.00  0.00     0.031 A 
BRANCH  20  21
HETATM   21  C   UNK N   1      33.356  18.139   7.972  0.00  0.00     0.180 C 
BRANCH  21  22
HETATM   22  O   UNK N   1      34.551  18.266   7.257  0.00  0.00    -0.400 OA
HETATM   23  H   UNK N   1      34.538  18.455   6.305  0.00  0.00     0.209 HD
ENDBRANCH  21  22
ENDBRANCH  20  21
BRANCH  20  24
HETATM   24  C   UNK N   1      32.695  16.665   5.896  0.00  0.00     0.180 C 
BRANCH  24  25
HETATM   25  O   UNK N   1      32.917  17.605   4.885  0.00  0.00    -0.400 OA
HETATM   26  H   UNK N   1      32.895  17.428   3.932  0.00  0.00     0.209 HD
ENDBRANCH  24  25
ENDBRANCH  20  24
ENDBRANCH  17  18
ENDBRANCH  12  17
TORSDOF 6
ENDMDL
MODEL 3
REMARK VINA RESULT:      -6.0      6.195      8.892
REMARK  6 active torsions:
REMARK  status: ('A' for Active; 'I' for Inactive)
REMARK       I    between atoms: C_8  and  N_21 
REMARK    1  A    between atoms: N_12  and  C_13 
REMARK    2  A    between atoms: C_13  and  C_14 
REMARK    3  A    between atoms: C_16  and  C_17 
REMARK    4  A    between atoms: C_16  and  C_19 
REMARK    5  A    between atoms: C_17  and  O_18 
REMARK    6  A    between atoms: C_19  and  O_20 
ROOT
HETATM    1  C   UNK N   1      30.252  17.537   9.088  0.00  0.00     0.190 A 
HETATM    2  N   UNK N   1      29.252  18.446   8.893  0.00  0.00    -0.344 N 
ATOM      3  HN  UNK N   1      28.809  19.048   9.586  1.00  0.00     0.167 HD
HETATM    4  C   UNK N   1      28.984  18.369   7.575  0.00  0.00     0.148 A 
HETATM    5  C   UNK N   1      28.085  19.086   6.801  0.00  0.00     0.290 A 
HETATM    6  O   UNK N   1      27.370  19.945   7.289  0.00  0.00    -0.265 OA
HETATM    7  N   UNK N   1      28.031  18.809   5.452  0.00  0.00    -0.154 N 
HETATM    8  C   UNK N   1      28.849  17.855   4.895  0.00  0.00     0.680 A 
HETATM    9  N   UNK N   1      29.741  17.167   5.675  0.00  0.00    -0.174 N 
ATOM     10  HN  UNK N   1      30.361  16.467   5.269  1.00  0.00     0.186 HD
HETATM   11  C   UNK N   1      29.777  17.443   7.000  0.00  0.00     0.161 A 
HETATM   12  N   UNK N   1      30.580  16.911   7.928  0.00  0.00    -0.302 N 
HETATM   13  N   UNK N   1      28.772  17.585   3.515  0.00  0.00    -0.234 N 
HETATM   14  H   UNK N   1      27.398  19.300   4.880  0.00  0.00     0.187 HD
HETATM   15  H   UNK N   1      29.377  16.924   3.106  0.00  0.00     0.174 HD
HETATM   16  H   UNK N   1      28.112  18.058   2.958  0.00  0.00     0.174 HD
ENDROOT
BRANCH  12  17
HETATM   17  C   UNK N   1      31.652  15.988   7.678  0.00  0.00     0.103 C 
BRANCH  17  18
HETATM   18  C   UNK N   1      32.928  16.255   7.980  0.00  0.00    -0.050 A 
HETATM   19  C   UNK N   1      34.125  15.809   7.424  0.00  0.00     0.055 A 
HETATM   20  C   UNK N   1      33.991  17.007   8.563  0.00  0.00     0.031 A 
BRANCH  20  21
HETATM   21  C   UNK N   1      35.047  16.543   9.568  0.00  0.00     0.180 C 
BRANCH  21  22
HETATM   22  O   UNK N   1      34.936  17.226  10.784  0.00  0.00    -0.400 OA
HETATM   23  H   UNK N   1      35.636  17.159  11.451  0.00  0.00     0.209 HD
ENDBRANCH  21  22
ENDBRANCH  20  21
BRANCH  20  24
HETATM   24  C   UNK N   1      34.033  18.430   8.041  0.00  0.00     0.180 C 
BRANCH  24  25
HETATM   25  O   UNK N   1      35.200  19.046   8.504  0.00  0.00    -0.400 OA
HETATM   26  H   UNK N   1      35.673  18.823   9.321  0.00  0.00     0.209 HD
ENDBRANCH  24  25
ENDBRANCH  20  24
ENDBRANCH  17  18
ENDBRANCH  12  17
TORSDOF 6
ENDMDL
MODEL 4
REMARK VINA RESULT:      -6.0      8.272     11.853
REMARK  6 active torsions:
REMARK  status: ('A' for Active; 'I' for Inactive)
REMARK       I    between atoms: C_8  and  N_21 
REMARK    1  A    between atoms: N_12  and  C_13 
REMARK    2  A    between atoms: C_13  and  C_14 
REMARK    3  A    between atoms: C_16  and  C_17 
REMARK    4  A    between atoms: C_16  and  C_19 
REMARK    5  A    between atoms: C_17  and  O_18 
REMARK    6  A    between atoms: C_19  and  O_20 
ROOT
HETATM    1  C   UNK N   1      32.689  18.121   7.886  0.00  0.00     0.190 A 
HETATM    2  N   UNK N   1      33.831  18.286   8.616  0.00  0.00    -0.344 N 
ATOM      3  HN  UNK N   1      34.392  19.131   8.719  1.00  0.00     0.167 HD
HETATM    4  C   UNK N   1      34.047  17.078   9.172  0.00  0.00     0.148 A 
HETATM    5  C   UNK N   1      35.040  16.659  10.045  0.00  0.00     0.290 A 
HETATM    6  O   UNK N   1      35.909  17.422  10.431  0.00  0.00    -0.265 OA
HETATM    7  N   UNK N   1      35.010  15.351  10.476  0.00  0.00    -0.154 N 
HETATM    8  C   UNK N   1      34.020  14.494  10.059  0.00  0.00     0.680 A 
HETATM    9  N   UNK N   1      33.038  14.931   9.208  0.00  0.00    -0.174 N 
ATOM     10  HN  UNK N   1      32.293  14.307   8.903  1.00  0.00     0.186 HD
HETATM   11  C   UNK N   1      33.087  16.216   8.784  0.00  0.00     0.161 A 
HETATM   12  N   UNK N   1      32.224  16.848   7.980  0.00  0.00    -0.302 N 
HETATM   13  N   UNK N   1      34.013  13.160  10.509  0.00  0.00    -0.234 N 
HETATM   14  H   UNK N   1      35.705  15.027  11.093  0.00  0.00     0.187 HD
HETATM   15  H   UNK N   1      33.289  12.550  10.237  0.00  0.00     0.174 HD
HETATM   16  H   UNK N   1      34.732  12.836  11.098  0.00  0.00     0.174 HD
ENDROOT
BRANCH  12  17
HETATM   17  C   UNK N   1      30.998  16.300   7.470  0.00  0.00     0.103 C 
BRANCH  17  18
HETATM   18  C   UNK N   1      29.913  17.043   7.230  0.00  0.00    -0.050 A 
HETATM   19  C   UNK N   1      29.223  17.324   6.053  0.00  0.00     0.055 A 
HETATM   20  C   UNK N   1      28.713  17.734   7.577  0.00  0.00     0.031 A 
BRANCH  20  21
HETATM   21  C   UNK N   1      28.365  19.207   7.359  0.00  0.00     0.180 C 
BRANCH  21  22
HETATM   22  O   UNK N   1      27.268  19.598   8.134  0.00  0.00    -0.400 OA
HETATM   23  H   UNK N   1      27.018  20.533   8.197  0.00  0.00     0.209 HD
ENDBRANCH  21  22
ENDBRANCH  20  21
BRANCH  20  24
HETATM   24  C   UNK N   1      27.688  16.812   8.207  0.00  0.00     0.180 C 
BRANCH  24  25
HETATM   25  O   UNK N   1      27.438  17.240   9.514  0.00  0.00    -0.400 OA
HETATM   26  H   UNK N   1      27.287  18.158   9.791  0.00  0.00     0.209 HD
ENDBRANCH  24  25
ENDBRANCH  20  24
ENDBRANCH  17  18
ENDBRANCH  12  17
TORSDOF 6
ENDMDL
MODEL 5
REMARK VINA RESULT:      -6.0      5.997      8.226
REMARK  6 active torsions:
REMARK  status: ('A' for Active; 'I' for Inactive)
REMARK       I    between atoms: C_8  and  N_21 
REMARK    1  A    between atoms: N_12  and  C_13 
REMARK    2  A    between atoms: C_13  and  C_14 
REMARK    3  A    between atoms: C_16  and  C_17 
REMARK    4  A    between atoms: C_16  and  C_19 
REMARK    5  A    between atoms: C_17  and  O_18 
REMARK    6  A    between atoms: C_19  and  O_20 
ROOT
HETATM    1  C   UNK N   1      30.021  16.832   4.140  0.00  0.00     0.190 A 
HETATM    2  N   UNK N   1      29.253  17.947   3.966  0.00  0.00    -0.344 N 
ATOM      3  HN  UNK N   1      29.077  18.458   3.102  1.00  0.00     0.167 HD
HETATM    4  C   UNK N   1      28.778  18.218   5.197  0.00  0.00     0.148 A 
HETATM    5  C   UNK N   1      27.912  19.214   5.623  0.00  0.00     0.290 A 
HETATM    6  O   UNK N   1      27.453  20.032   4.844  0.00  0.00    -0.265 OA
HETATM    7  N   UNK N   1      27.575  19.247   6.958  0.00  0.00    -0.154 N 
HETATM    8  C   UNK N   1      28.075  18.315   7.836  0.00  0.00     0.680 A 
HETATM    9  N   UNK N   1      28.917  17.329   7.392  0.00  0.00    -0.174 N 
ATOM     10  HN  UNK N   1      29.284  16.626   8.032  1.00  0.00     0.186 HD
HETATM   11  C   UNK N   1      29.249  17.315   6.079  0.00  0.00     0.161 A 
HETATM   12  N   UNK N   1      30.028  16.436   5.439  0.00  0.00    -0.302 N 
HETATM   13  N   UNK N   1      27.720  18.373   9.196  0.00  0.00    -0.234 N 
HETATM   14  H   UNK N   1      26.966  19.947   7.288  0.00  0.00     0.187 HD
HETATM   15  H   UNK N   1      28.053  17.689   9.823  0.00  0.00     0.174 HD
HETATM   16  H   UNK N   1      27.138  19.096   9.523  0.00  0.00     0.174 HD
ENDROOT
BRANCH  12  17
HETATM   17  C   UNK N   1      30.605  15.253   6.014  0.00  0.00     0.103 C 
BRANCH  17  18
HETATM   18  C   UNK N   1      31.584  15.290   6.925  0.00  0.00    -0.050 A 
HETATM   19  C   UNK N   1      32.931  14.943   6.854  0.00  0.00     0.055 A 
HETATM   20  C   UNK N   1      32.211  15.710   8.136  0.00  0.00     0.031 A 
BRANCH  20  21
HETATM   21  C   UNK N   1      32.728  14.850   9.290  0.00  0.00     0.180 C 
BRANCH  21  22
HETATM   22  O   UNK N   1      32.081  15.159  10.492  0.00  0.00    -0.400 OA
HETATM   23  H   UNK N   1      31.412  14.560  10.858  0.00  0.00     0.209 HD
ENDBRANCH  21  22
ENDBRANCH  20  21
BRANCH  20  24
HETATM   24  C   UNK N   1      32.384  17.216   8.193  0.00  0.00     0.180 C 
BRANCH  24  25
HETATM   25  O   UNK N   1      31.426  17.748   9.061  0.00  0.00    -0.400 OA
HETATM   26  H   UNK N   1      30.948  17.257   9.748  0.00  0.00     0.209 HD
ENDBRANCH  24  25
ENDBRANCH  20  24
ENDBRANCH  17  18
ENDBRANCH  12  17
TORSDOF 6
ENDMDL
MODEL 6
REMARK VINA RESULT:      -5.9      4.859      6.907
REMARK  6 active torsions:
REMARK  status: ('A' for Active; 'I' for Inactive)
REMARK       I    between atoms: C_8  and  N_21 
REMARK    1  A    between atoms: N_12  and  C_13 
REMARK    2  A    between atoms: C_13  and  C_14 
REMARK    3  A    between atoms: C_16  and  C_17 
REMARK    4  A    between atoms: C_16  and  C_19 
REMARK    5  A    between atoms: C_17  and  O_18 
REMARK    6  A    between atoms: C_19  and  O_20 
ROOT
HETATM    1  C   UNK N   1      22.456  15.707   6.315  0.00  0.00     0.190 A 
HETATM    2  N   UNK N   1      22.005  14.773   7.204  0.00  0.00    -0.344 N 
ATOM      3  HN  UNK N   1      22.355  13.827   7.349  1.00  0.00     0.167 HD
HETATM    4  C   UNK N   1      20.994  15.388   7.848  0.00  0.00     0.148 A 
HETATM    5  C   UNK N   1      20.188  14.940   8.883  0.00  0.00     0.290 A 
HETATM    6  O   UNK N   1      20.326  13.826   9.359  0.00  0.00    -0.265 OA
HETATM    7  N   UNK N   1      19.227  15.799   9.370  0.00  0.00    -0.154 N 
HETATM    8  C   UNK N   1      19.081  17.062   8.850  0.00  0.00     0.680 A 
HETATM    9  N   UNK N   1      19.898  17.492   7.837  0.00  0.00    -0.174 N 
ATOM     10  HN  UNK N   1      19.807  18.431   7.452  1.00  0.00     0.186 HD
HETATM   11  C   UNK N   1      20.831  16.634   7.360  0.00  0.00     0.161 A 
HETATM   12  N   UNK N   1      21.737  16.856   6.401  0.00  0.00    -0.302 N 
HETATM   13  N   UNK N   1      18.089  17.920   9.361  0.00  0.00    -0.234 N 
HETATM   14  H   UNK N   1      18.638  15.504  10.102  0.00  0.00     0.187 HD
HETATM   15  H   UNK N   1      18.000  18.837   9.011  0.00  0.00     0.174 HD
HETATM   16  H   UNK N   1      17.483  17.604  10.069  0.00  0.00     0.174 HD
ENDROOT
BRANCH  12  17
HETATM   17  C   UNK N   1      21.964  18.109   5.738  0.00  0.00     0.103 C 
BRANCH  17  18
HETATM   18  C   UNK N   1      21.440  18.406   4.543  0.00  0.00    -0.050 A 
HETATM   19  C   UNK N   1      21.952  19.110   3.456  0.00  0.00     0.055 A 
HETATM   20  C   UNK N   1      20.530  18.256   3.455  0.00  0.00     0.031 A 
BRANCH  20  21
HETATM   21  C   UNK N   1      19.589  19.299   2.849  0.00  0.00     0.180 C 
BRANCH  21  22
HETATM   22  O   UNK N   1      18.387  18.723   2.424  0.00  0.00    -0.400 OA
HETATM   23  H   UNK N   1      17.826  18.238   3.050  0.00  0.00     0.209 HD
ENDBRANCH  21  22
ENDBRANCH  20  21
BRANCH  20  24
HETATM   24  C   UNK N   1      20.588  16.866   2.852  0.00  0.00     0.180 C 
BRANCH  24  25
HETATM   25  O   UNK N   1      19.466  16.146   3.270  0.00  0.00    -0.400 OA
HETATM   26  H   UNK N   1      18.998  15.473   2.750  0.00  0.00     0.209 HD
ENDBRANCH  24  25
ENDBRANCH  20  24
ENDBRANCH  17  18
ENDBRANCH  12  17
TORSDOF 6
ENDMDL
MODEL 7
REMARK VINA RESULT:      -5.9     12.216     15.455
REMARK  6 active torsions:
REMARK  status: ('A' for Active; 'I' for Inactive)
REMARK       I    between atoms: C_8  and  N_21 
REMARK    1  A    between atoms: N_12  and  C_13 
REMARK    2  A    between atoms: C_13  and  C_14 
REMARK    3  A    between atoms: C_16  and  C_17 
REMARK    4  A    between atoms: C_16  and  C_19 
REMARK    5  A    between atoms: C_17  and  O_18 
REMARK    6  A    between atoms: C_19  and  O_20 
ROOT
HETATM    1  C   UNK N   1      36.421  14.878  12.002  0.00  0.00     0.190 A 
HETATM    2  N   UNK N   1      36.448  16.025  11.262  0.00  0.00    -0.344 N 
ATOM      3  HN  UNK N   1      37.204  16.705  11.188  1.00  0.00     0.167 HD
HETATM    4  C   UNK N   1      35.249  16.053  10.649  0.00  0.00     0.148 A 
HETATM    5  C   UNK N   1      34.728  16.965   9.744  0.00  0.00     0.290 A 
HETATM    6  O   UNK N   1      35.369  17.935   9.379  0.00  0.00    -0.265 OA
HETATM    7  N   UNK N   1      33.460  16.735   9.255  0.00  0.00    -0.154 N 
HETATM    8  C   UNK N   1      32.741  15.631   9.648  0.00  0.00     0.680 A 
HETATM    9  N   UNK N   1      33.281  14.734  10.533  0.00  0.00    -0.174 N 
ATOM     10  HN  UNK N   1      32.761  13.906  10.821  1.00  0.00     0.186 HD
HETATM   11  C   UNK N   1      34.523  14.978  11.013  0.00  0.00     0.161 A 
HETATM   12  N   UNK N   1      35.238  14.227  11.858  0.00  0.00    -0.302 N 
HETATM   13  N   UNK N   1      31.446  15.421   9.139  0.00  0.00    -0.234 N 
HETATM   14  H   UNK N   1      33.064  17.369   8.614  0.00  0.00     0.187 HD
HETATM   15  H   UNK N   1      30.939  14.616   9.395  0.00  0.00     0.174 HD
HETATM   16  H   UNK N   1      31.046  16.078   8.526  0.00  0.00     0.174 HD
ENDROOT
BRANCH  12  17
HETATM   17  C   UNK N   1      34.856  12.937  12.361  0.00  0.00     0.103 C 
BRANCH  17  18
HETATM   18  C   UNK N   1      34.886  12.624  13.661  0.00  0.00    -0.050 A 
HETATM   19  C   UNK N   1      34.417  11.513  14.359  0.00  0.00     0.055 A 
HETATM   20  C   UNK N   1      35.354  12.719  15.006  0.00  0.00     0.031 A 
BRANCH  20  21
HETATM   21  C   UNK N   1      34.556  13.031  16.273  0.00  0.00     0.180 C 
BRANCH  21  22
HETATM   22  O   UNK N   1      35.372  13.561  17.278  0.00  0.00    -0.400 OA
HETATM   23  H   UNK N   1      34.980  13.973  18.063  0.00  0.00     0.209 HD
ENDBRANCH  21  22
ENDBRANCH  20  21
BRANCH  20  24
HETATM   24  C   UNK N   1      36.837  12.425  15.114  0.00  0.00     0.180 C 
BRANCH  24  25
HETATM   25  O   UNK N   1      37.536  13.635  15.162  0.00  0.00    -0.400 OA
HETATM   26  H   UNK N   1      38.448  13.775  14.863  0.00  0.00     0.209 HD
ENDBRANCH  24  25
ENDBRANCH  20  24
ENDBRANCH  17  18
ENDBRANCH  12  17
TORSDOF 6
ENDMDL
MODEL 8
REMARK VINA RESULT:      -5.9     12.048     14.763
REMARK  6 active torsions:
REMARK  status: ('A' for Active; 'I' for Inactive)
REMARK       I    between atoms: C_8  and  N_21 
REMARK    1  A    between atoms: N_12  and  C_13 
REMARK    2  A    between atoms: C_13  and  C_14 
REMARK    3  A    between atoms: C_16  and  C_17 
REMARK    4  A    between atoms: C_16  and  C_19 
REMARK    5  A    between atoms: C_17  and  O_18 
REMARK    6  A    between atoms: C_19  and  O_20 
ROOT
HETATM    1  C   UNK N   1      35.338  16.199  11.345  0.00  0.00     0.190 A 
HETATM    2  N   UNK N   1      35.280  17.380  10.663  0.00  0.00    -0.344 N 
ATOM      3  HN  UNK N   1      35.505  18.313  11.008  1.00  0.00     0.167 HD
HETATM    4  C   UNK N   1      34.860  17.033   9.432  0.00  0.00     0.148 A 
HETATM    5  C   UNK N   1      34.654  17.813   8.304  0.00  0.00     0.290 A 
HETATM    6  O   UNK N   1      34.848  19.016   8.319  0.00  0.00    -0.265 OA
HETATM    7  N   UNK N   1      34.231  17.183   7.154  0.00  0.00    -0.154 N 
HETATM    8  C   UNK N   1      34.029  15.824   7.127  0.00  0.00     0.680 A 
HETATM    9  N   UNK N   1      34.253  15.069   8.248  0.00  0.00    -0.174 N 
ATOM     10  HN  UNK N   1      34.119  14.059   8.235  1.00  0.00     0.186 HD
HETATM   11  C   UNK N   1      34.658  15.702   9.374  0.00  0.00     0.161 A 
HETATM   12  N   UNK N   1      34.953  15.159  10.561  0.00  0.00    -0.302 N 
HETATM   13  N   UNK N   1      33.593  15.204   5.941  0.00  0.00    -0.234 N 
HETATM   14  H   UNK N   1      34.073  17.714   6.339  0.00  0.00     0.187 HD
HETATM   15  H   UNK N   1      33.475  14.226   5.909  0.00  0.00     0.174 HD
HETATM   16  H   UNK N   1      33.405  15.747   5.142  0.00  0.00     0.174 HD
ENDROOT
BRANCH  12  17
HETATM   17  C   UNK N   1      34.989  13.753  10.853  0.00  0.00     0.103 C 
BRANCH  17  18
HETATM   18  C   UNK N   1      35.398  13.263  12.028  0.00  0.00    -0.050 A 
HETATM   19  C   UNK N   1      34.837  12.318  12.884  0.00  0.00     0.055 A 
HETATM   20  C   UNK N   1      36.350  12.977  13.052  0.00  0.00     0.031 A 
BRANCH  20  21
HETATM   21  C   UNK N   1      36.311  13.373  14.528  0.00  0.00     0.180 C 
BRANCH  21  22
HETATM   22  O   UNK N   1      37.596  13.574  15.042  0.00  0.00    -0.400 OA
HETATM   23  H   UNK N   1      38.080  12.843  15.456  0.00  0.00     0.209 HD
ENDBRANCH  21  22
ENDBRANCH  20  21
BRANCH  20  24
HETATM   24  C   UNK N   1      37.503  12.137  12.536  0.00  0.00     0.180 C 
BRANCH  24  25
HETATM   25  O   UNK N   1      38.282  12.918  11.678  0.00  0.00    -0.400 OA
HETATM   26  H   UNK N   1      38.686  12.618  10.848  0.00  0.00     0.209 HD
ENDBRANCH  24  25
ENDBRANCH  20  24
ENDBRANCH  17  18
ENDBRANCH  12  17
TORSDOF 6
ENDMDL
MODEL 9
REMARK VINA RESULT:      -5.8      6.707      9.631
REMARK  6 active torsions:
REMARK  status: ('A' for Active; 'I' for Inactive)
REMARK       I    between atoms: C_8  and  N_21 
REMARK    1  A    between atoms: N_12  and  C_13 
REMARK    2  A    between atoms: C_13  and  C_14 
REMARK    3  A    between atoms: C_16  and  C_17 
REMARK    4  A    between atoms: C_16  and  C_19 
REMARK    5  A    between atoms: C_17  and  O_18 
REMARK    6  A    between atoms: C_19  and  O_20 
ROOT
HETATM    1  C   UNK N   1      32.136  17.388   3.884  0.00  0.00     0.190 A 
HETATM    2  N   UNK N   1      33.235  17.667   4.644  0.00  0.00    -0.344 N 
ATOM      3  HN  UNK N   1      34.162  17.946   4.325  1.00  0.00     0.167 HD
HETATM    4  C   UNK N   1      32.815  17.494   5.912  0.00  0.00     0.148 A 
HETATM    5  C   UNK N   1      33.488  17.673   7.110  0.00  0.00     0.290 A 
HETATM    6  O   UNK N   1      34.651  18.038   7.137  0.00  0.00    -0.265 OA
HETATM    7  N   UNK N   1      32.799  17.436   8.279  0.00  0.00    -0.154 N 
HETATM    8  C   UNK N   1      31.482  17.043   8.254  0.00  0.00     0.680 A 
HETATM    9  N   UNK N   1      30.829  16.886   7.059  0.00  0.00    -0.174 N 
ATOM     10  HN  UNK N   1      29.850  16.607   7.030  1.00  0.00     0.186 HD
HETATM   11  C   UNK N   1      31.522  17.112   5.918  0.00  0.00     0.161 A 
HETATM   12  N   UNK N   1      31.076  17.041   4.659  0.00  0.00    -0.302 N 
HETATM   13  N   UNK N   1      30.799  16.802   9.461  0.00  0.00    -0.234 N 
HETATM   14  H   UNK N   1      33.255  17.551   9.144  0.00  0.00     0.187 HD
HETATM   15  H   UNK N   1      29.847  16.549   9.449  0.00  0.00     0.174 HD
HETATM   16  H   UNK N   1      31.274  16.886  10.320  0.00  0.00     0.174 HD
ENDROOT
BRANCH  12  17
HETATM   17  C   UNK N   1      29.717  16.796   4.265  0.00  0.00     0.103 C 
BRANCH  17  18
HETATM   18  C   UNK N   1      28.740  17.697   4.419  0.00  0.00    -0.050 A 
HETATM   19  C   UNK N   1      27.466  17.788   3.864  0.00  0.00     0.055 A 
HETATM   20  C   UNK N   1      28.048  18.757   5.077  0.00  0.00     0.031 A 
BRANCH  20  21
HETATM   21  C   UNK N   1      27.669  20.134   4.529  0.00  0.00     0.180 C 
BRANCH  21  22
HETATM   22  O   UNK N   1      27.456  21.057   5.558  0.00  0.00    -0.400 OA
HETATM   23  H   UNK N   1      27.961  21.885   5.588  0.00  0.00     0.209 HD
ENDBRANCH  21  22
ENDBRANCH  20  21
BRANCH  20  24
HETATM   24  C   UNK N   1      27.638  18.378   6.487  0.00  0.00     0.180 C 
BRANCH  24  25
HETATM   25  O   UNK N   1      28.538  18.953   7.389  0.00  0.00    -0.400 OA
HETATM   26  H   UNK N   1      28.524  19.873   7.695  0.00  0.00     0.209 HD
ENDBRANCH  24  25
ENDBRANCH  20  24
ENDBRANCH  17  18
ENDBRANCH  12  17
TORSDOF 6
ENDMDL
