MODEL 1
REMARK VINA RESULT:      -5.1      0.000      0.000
REMARK  17 active torsions:
REMARK  status: ('A' for Active; 'I' for Inactive)
REMARK    1  A    between atoms: C_1  and  C_2 
REMARK    2  A    between atoms: C_1  and  N_14 
REMARK    3  A    between atoms: C_2  and  C_3 
REMARK    4  A    between atoms: C_2  and  O_13 
REMARK    5  A    between atoms: C_3  and  N_4 
REMARK    6  A    between atoms: N_4  and  C_5 
REMARK    7  A    between atoms: N_4  and  C_9 
REMARK    8  A    between atoms: C_5  and  C_6 
REMARK    9  A    between atoms: C_6  and  O_8 
REMARK   10  A    between atoms: C_9  and  C_10 
REMARK   11  A    between atoms: C_10  and  O_12 
REMARK   12  A    between atoms: N_14  and  C_15 
REMARK   13  A    between atoms: N_14  and  C_19 
REMARK   14  A    between atoms: C_15  and  C_16 
REMARK   15  A    between atoms: C_16  and  O_18 
REMARK   16  A    between atoms: C_19  and  C_20 
REMARK   17  A    between atoms: C_20  and  O_22 
ROOT
HETATM    1  C   UNK N   1      33.287  13.649   9.021  0.00  0.00     0.174 C 
ENDROOT
BRANCH   1   2
HETATM    2  C   UNK N   1      33.220  14.028   7.542  0.00  0.00     0.307 C 
BRANCH   2   3
HETATM    3  N   UNK N   1      33.087  15.479   7.321  0.00  0.00     0.110 N 
BRANCH   3   4
HETATM    4  C   UNK N   1      31.685  15.859   7.461  0.00  0.00     0.382 C 
BRANCH   4   5
HETATM    5  C   UNK N   1      31.508  16.760   8.640  0.00  0.00     0.169 C 
HETATM    6  O   UNK N   1      31.915  17.910   8.599  0.00  0.00    -0.649 OA
BRANCH   5   7
HETATM    7  O   UNK N   1      30.902  16.302   9.750  0.00  0.00    -0.775 OA
HETATM    8  H   UNK N   1      30.889  16.793  10.548  0.00  0.00     0.167 HD
ENDBRANCH   5   7
ENDBRANCH   4   5
ENDBRANCH   3   4
BRANCH   3   9
HETATM    9  C   UNK N   1      33.538  15.852   5.983  0.00  0.00     0.382 C 
BRANCH   9  10
HETATM   10  C   UNK N   1      33.840  17.314   5.918  0.00  0.00     0.169 C 
HETATM   11  O   UNK N   1      33.470  17.975   4.961  0.00  0.00    -0.649 OA
BRANCH  10  12
HETATM   12  O   UNK N   1      34.518  17.905   6.918  0.00  0.00    -0.775 OA
HETATM   13  H   UNK N   1      35.380  18.242   6.769  0.00  0.00     0.167 HD
ENDBRANCH  10  12
ENDBRANCH   9  10
ENDBRANCH   3   9
ENDBRANCH   2   3
ENDBRANCH   1   2
BRANCH   1  14
HETATM   14  C   UNK N   1      34.686  13.197   9.379  0.00  0.00     0.307 C 
BRANCH  14  15
HETATM   15  N   UNK N   1      35.138  13.899  10.576  0.00  0.00     0.110 N 
BRANCH  15  16
HETATM   16  C   UNK N   1      35.003  13.008  11.720  0.00  0.00     0.382 C 
BRANCH  16  17
HETATM   17  C   UNK N   1      35.681  13.608  12.908  0.00  0.00     0.169 C 
HETATM   18  O   UNK N   1      35.104  13.669  13.980  0.00  0.00    -0.649 OA
BRANCH  17  19
HETATM   19  O   UNK N   1      36.932  14.090  12.791  0.00  0.00    -0.775 OA
HETATM   20  H   UNK N   1      37.185  14.953  12.530  0.00  0.00     0.167 HD
ENDBRANCH  17  19
ENDBRANCH  16  17
ENDBRANCH  15  16
BRANCH  15  21
HETATM   21  C   UNK N   1      34.404  15.151  10.806  0.00  0.00     0.382 C 
BRANCH  21  22
HETATM   22  C   UNK N   1      35.202  16.388  10.502  0.00  0.00     0.169 C 
HETATM   23  O   UNK N   1      36.394  16.425  10.757  0.00  0.00    -0.649 OA
BRANCH  22  24
HETATM   24  O   UNK N   1      34.612  17.438   9.899  0.00  0.00    -0.775 OA
HETATM   25  H   UNK N   1      34.718  17.663   8.996  0.00  0.00     0.167 HD
ENDBRANCH  22  24
ENDBRANCH  21  22
ENDBRANCH  15  21
ENDBRANCH  14  15
ENDBRANCH   1  14
BRANCH   1  26
HETATM   26  O   UNK N   1      32.378  12.627   9.296  0.00  0.00    -0.392 OA
HETATM   27  H   UNK N   1      31.569  12.808   9.800  0.00  0.00     0.210 HD
ENDBRANCH   1  26
TORSDOF 17
ENDMDL
MODEL 2
REMARK VINA RESULT:      -5.1      2.068      6.709
REMARK  17 active torsions:
REMARK  status: ('A' for Active; 'I' for Inactive)
REMARK    1  A    between atoms: C_1  and  C_2 
REMARK    2  A    between atoms: C_1  and  N_14 
REMARK    3  A    between atoms: C_2  and  C_3 
REMARK    4  A    between atoms: C_2  and  O_13 
REMARK    5  A    between atoms: C_3  and  N_4 
REMARK    6  A    between atoms: N_4  and  C_5 
REMARK    7  A    between atoms: N_4  and  C_9 
REMARK    8  A    between atoms: C_5  and  C_6 
REMARK    9  A    between atoms: C_6  and  O_8 
REMARK   10  A    between atoms: C_9  and  C_10 
REMARK   11  A    between atoms: C_10  and  O_12 
REMARK   12  A    between atoms: N_14  and  C_15 
REMARK   13  A    between atoms: N_14  and  C_19 
REMARK   14  A    between atoms: C_15  and  C_16 
REMARK   15  A    between atoms: C_16  and  O_18 
REMARK   16  A    between atoms: C_19  and  C_20 
REMARK   17  A    between atoms: C_20  and  O_22 
ROOT
HETATM    1  C   UNK N   1      34.821  15.039  10.828  0.00  0.00     0.174 C 
ENDROOT
BRANCH   1   2
HETATM    2  C   UNK N   1      35.807  15.391  11.943  0.00  0.00     0.307 C 
BRANCH   2   3
HETATM    3  N   UNK N   1      36.443  14.208  12.549  0.00  0.00     0.110 N 
BRANCH   3   4
HETATM    4  C   UNK N   1      36.311  13.074  11.640  0.00  0.00     0.382 C 
BRANCH   4   5
HETATM    5  C   UNK N   1      37.659  12.523  11.300  0.00  0.00     0.169 C 
HETATM    6  O   UNK N   1      37.836  11.317  11.263  0.00  0.00    -0.649 OA
BRANCH   5   7
HETATM    7  O   UNK N   1      38.679  13.361  11.037  0.00  0.00    -0.775 OA
HETATM    8  H   UNK N   1      39.336  13.159  10.400  0.00  0.00     0.167 HD
ENDBRANCH   5   7
ENDBRANCH   4   5
ENDBRANCH   3   4
BRANCH   3   9
HETATM    9  C   UNK N   1      35.811  13.862  13.819  0.00  0.00     0.382 C 
BRANCH   9  10
HETATM   10  C   UNK N   1      36.842  13.479  14.833  0.00  0.00     0.169 C 
HETATM   11  O   UNK N   1      37.046  12.303  15.084  0.00  0.00    -0.649 OA
BRANCH  10  12
HETATM   12  O   UNK N   1      37.547  14.434  15.466  0.00  0.00    -0.775 OA
HETATM   13  H   UNK N   1      37.512  15.322  15.168  0.00  0.00     0.167 HD
ENDBRANCH  10  12
ENDBRANCH   9  10
ENDBRANCH   3   9
ENDBRANCH   2   3
ENDBRANCH   1   2
BRANCH   1  14
HETATM   14  C   UNK N   1      34.874  16.087   9.738  0.00  0.00     0.307 C 
BRANCH  14  15
HETATM   15  N   UNK N   1      33.597  16.124   9.032  0.00  0.00     0.110 N 
BRANCH  15  16
HETATM   16  C   UNK N   1      33.664  15.215   7.895  0.00  0.00     0.382 C 
BRANCH  16  17
HETATM   17  C   UNK N   1      32.503  14.277   7.932  0.00  0.00     0.169 C 
HETATM   18  O   UNK N   1      31.748  14.196   6.977  0.00  0.00    -0.649 OA
BRANCH  17  19
HETATM   19  O   UNK N   1      32.286  13.523   9.025  0.00  0.00    -0.775 OA
HETATM   20  H   UNK N   1      32.529  13.722   9.908  0.00  0.00     0.167 HD
ENDBRANCH  17  19
ENDBRANCH  16  17
ENDBRANCH  15  16
BRANCH  15  21
HETATM   21  C   UNK N   1      33.235  17.478   8.590  0.00  0.00     0.382 C 
BRANCH  21  22
HETATM   22  C   UNK N   1      34.326  18.183   7.834  0.00  0.00     0.169 C 
HETATM   23  O   UNK N   1      34.507  17.939   6.653  0.00  0.00    -0.649 OA
BRANCH  22  24
HETATM   24  O   UNK N   1      35.070  19.123   8.447  0.00  0.00    -0.775 OA
HETATM   25  H   UNK N   1      34.807  20.013   8.574  0.00  0.00     0.167 HD
ENDBRANCH  22  24
ENDBRANCH  21  22
ENDBRANCH  15  21
ENDBRANCH  14  15
ENDBRANCH   1  14
BRANCH   1  26
HETATM   26  O   UNK N   1      33.527  14.959  11.341  0.00  0.00    -0.392 OA
HETATM   27  H   UNK N   1      33.373  14.644  12.247  0.00  0.00     0.210 HD
ENDBRANCH   1  26
TORSDOF 17
ENDMDL
MODEL 3
REMARK VINA RESULT:      -5.0      1.832      3.509
REMARK  17 active torsions:
REMARK  status: ('A' for Active; 'I' for Inactive)
REMARK    1  A    between atoms: C_1  and  C_2 
REMARK    2  A    between atoms: C_1  and  N_14 
REMARK    3  A    between atoms: C_2  and  C_3 
REMARK    4  A    between atoms: C_2  and  O_13 
REMARK    5  A    between atoms: C_3  and  N_4 
REMARK    6  A    between atoms: N_4  and  C_5 
REMARK    7  A    between atoms: N_4  and  C_9 
REMARK    8  A    between atoms: C_5  and  C_6 
REMARK    9  A    between atoms: C_6  and  O_8 
REMARK   10  A    between atoms: C_9  and  C_10 
REMARK   11  A    between atoms: C_10  and  O_12 
REMARK   12  A    between atoms: N_14  and  C_15 
REMARK   13  A    between atoms: N_14  and  C_19 
REMARK   14  A    between atoms: C_15  and  C_16 
REMARK   15  A    between atoms: C_16  and  O_18 
REMARK   16  A    between atoms: C_19  and  C_20 
REMARK   17  A    between atoms: C_20  and  O_22 
ROOT
HETATM    1  C   UNK N   1      33.765  14.857  10.022  0.00  0.00     0.174 C 
ENDROOT
BRANCH   1   2
HETATM    2  C   UNK N   1      33.049  15.021   8.682  0.00  0.00     0.307 C 
BRANCH   2   3
HETATM    3  N   UNK N   1      32.936  16.427   8.253  0.00  0.00     0.110 N 
BRANCH   3   4
HETATM    4  C   UNK N   1      33.913  17.229   8.980  0.00  0.00     0.382 C 
BRANCH   4   5
HETATM    5  C   UNK N   1      34.560  18.216   8.062  0.00  0.00     0.169 C 
HETATM    6  O   UNK N   1      35.226  19.131   8.516  0.00  0.00    -0.649 OA
BRANCH   5   7
HETATM    7  O   UNK N   1      34.403  18.095   6.730  0.00  0.00    -0.775 OA
HETATM    8  H   UNK N   1      34.006  17.340   6.343  0.00  0.00     0.167 HD
ENDBRANCH   5   7
ENDBRANCH   4   5
ENDBRANCH   3   4
BRANCH   3   9
HETATM    9  C   UNK N   1      31.603  16.956   8.528  0.00  0.00     0.382 C 
BRANCH   9  10
HETATM   10  C   UNK N   1      30.905  17.312   7.255  0.00  0.00     0.169 C 
HETATM   11  O   UNK N   1      31.486  17.206   6.187  0.00  0.00    -0.649 OA
BRANCH  10  12
HETATM   12  O   UNK N   1      29.632  17.747   7.285  0.00  0.00    -0.775 OA
HETATM   13  H   UNK N   1      29.200  17.881   8.106  0.00  0.00     0.167 HD
ENDBRANCH  10  12
ENDBRANCH   9  10
ENDBRANCH   3   9
ENDBRANCH   2   3
ENDBRANCH   1   2
BRANCH   1  14
HETATM   14  C   UNK N   1      34.434  13.501  10.091  0.00  0.00     0.307 C 
BRANCH  14  15
HETATM   15  N   UNK N   1      35.636  13.588  10.913  0.00  0.00     0.110 N 
BRANCH  15  16
HETATM   16  C   UNK N   1      36.797  13.318  10.075  0.00  0.00     0.382 C 
BRANCH  16  17
HETATM   17  C   UNK N   1      37.686  14.518  10.045  0.00  0.00     0.169 C 
HETATM   18  O   UNK N   1      38.760  14.473   9.470  0.00  0.00    -0.649 OA
BRANCH  17  19
HETATM   19  O   UNK N   1      37.301  15.652  10.661  0.00  0.00    -0.775 OA
HETATM   20  H   UNK N   1      37.508  16.531  10.411  0.00  0.00     0.167 HD
ENDBRANCH  17  19
ENDBRANCH  16  17
ENDBRANCH  15  16
BRANCH  15  21
HETATM   21  C   UNK N   1      35.603  12.671  12.061  0.00  0.00     0.382 C 
BRANCH  21  22
HETATM   22  C   UNK N   1      35.724  13.357  13.392  0.00  0.00     0.169 C 
HETATM   23  O   UNK N   1      34.745  13.478  14.109  0.00  0.00    -0.649 OA
BRANCH  22  24
HETATM   24  O   UNK N   1      36.925  13.795  13.817  0.00  0.00    -0.775 OA
HETATM   25  H   UNK N   1      37.073  14.244  14.626  0.00  0.00     0.167 HD
ENDBRANCH  22  24
ENDBRANCH  21  22
ENDBRANCH  15  21
ENDBRANCH  14  15
ENDBRANCH   1  14
BRANCH   1  26
HETATM   26  O   UNK N   1      32.856  14.985  11.071  0.00  0.00    -0.392 OA
HETATM   27  H   UNK N   1      33.095  15.475  11.875  0.00  0.00     0.210 HD
ENDBRANCH   1  26
TORSDOF 17
ENDMDL
MODEL 4
REMARK VINA RESULT:      -4.9     10.738     13.352
REMARK  17 active torsions:
REMARK  status: ('A' for Active; 'I' for Inactive)
REMARK    1  A    between atoms: C_1  and  C_2 
REMARK    2  A    between atoms: C_1  and  N_14 
REMARK    3  A    between atoms: C_2  and  C_3 
REMARK    4  A    between atoms: C_2  and  O_13 
REMARK    5  A    between atoms: C_3  and  N_4 
REMARK    6  A    between atoms: N_4  and  C_5 
REMARK    7  A    between atoms: N_4  and  C_9 
REMARK    8  A    between atoms: C_5  and  C_6 
REMARK    9  A    between atoms: C_6  and  O_8 
REMARK   10  A    between atoms: C_9  and  C_10 
REMARK   11  A    between atoms: C_10  and  O_12 
REMARK   12  A    between atoms: N_14  and  C_15 
REMARK   13  A    between atoms: N_14  and  C_19 
REMARK   14  A    between atoms: C_15  and  C_16 
REMARK   15  A    between atoms: C_16  and  O_18 
REMARK   16  A    between atoms: C_19  and  C_20 
REMARK   17  A    between atoms: C_20  and  O_22 
ROOT
HETATM    1  C   UNK N   1      22.387  18.311   4.758  0.00  0.00     0.174 C 
ENDROOT
BRANCH   1   2
HETATM    2  C   UNK N   1      20.965  18.081   4.247  0.00  0.00     0.307 C 
BRANCH   2   3
HETATM    3  N   UNK N   1      20.786  18.467   2.836  0.00  0.00     0.110 N 
BRANCH   3   4
HETATM    4  C   UNK N   1      20.286  19.836   2.774  0.00  0.00     0.382 C 
BRANCH   4   5
HETATM    5  C   UNK N   1      21.256  20.709   2.045  0.00  0.00     0.169 C 
HETATM    6  O   UNK N   1      21.398  20.595   0.839  0.00  0.00    -0.649 OA
BRANCH   5   7
HETATM    7  O   UNK N   1      21.978  21.622   2.723  0.00  0.00    -0.775 OA
HETATM    8  H   UNK N   1      22.405  22.335   2.293  0.00  0.00     0.167 HD
ENDBRANCH   5   7
ENDBRANCH   4   5
ENDBRANCH   3   4
BRANCH   3   9
HETATM    9  C   UNK N   1      19.827  17.591   2.167  0.00  0.00     0.382 C 
BRANCH   9  10
HETATM   10  C   UNK N   1      20.343  17.174   0.827  0.00  0.00     0.169 C 
HETATM   11  O   UNK N   1      20.762  16.041   0.658  0.00  0.00    -0.649 OA
BRANCH  10  12
HETATM   12  O   UNK N   1      20.340  18.048  -0.196  0.00  0.00    -0.775 OA
HETATM   13  H   UNK N   1      21.113  18.539  -0.397  0.00  0.00     0.167 HD
ENDBRANCH  10  12
ENDBRANCH   9  10
ENDBRANCH   3   9
ENDBRANCH   2   3
ENDBRANCH   1   2
BRANCH   1  14
HETATM   14  C   UNK N   1      23.339  17.334   4.102  0.00  0.00     0.307 C 
BRANCH  14  15
HETATM   15  N   UNK N   1      24.573  18.022   3.736  0.00  0.00     0.110 N 
BRANCH  15  16
HETATM   16  C   UNK N   1      25.681  17.414   4.461  0.00  0.00     0.382 C 
BRANCH  16  17
HETATM   17  C   UNK N   1      26.701  16.912   3.493  0.00  0.00     0.169 C 
HETATM   18  O   UNK N   1      26.366  16.197   2.563  0.00  0.00    -0.649 OA
BRANCH  17  19
HETATM   19  O   UNK N   1      27.995  17.244   3.652  0.00  0.00    -0.775 OA
HETATM   20  H   UNK N   1      28.598  16.893   4.278  0.00  0.00     0.167 HD
ENDBRANCH  17  19
ENDBRANCH  16  17
ENDBRANCH  15  16
BRANCH  15  21
HETATM   21  C   UNK N   1      24.513  19.466   3.999  0.00  0.00     0.382 C 
BRANCH  21  22
HETATM   22  C   UNK N   1      25.311  20.294   3.032  0.00  0.00     0.169 C 
HETATM   23  O   UNK N   1      26.498  20.493   3.232  0.00  0.00    -0.649 OA
BRANCH  22  24
HETATM   24  O   UNK N   1      24.729  20.773   1.916  0.00  0.00    -0.775 OA
HETATM   25  H   UNK N   1      24.581  20.276   1.136  0.00  0.00     0.167 HD
ENDBRANCH  22  24
ENDBRANCH  21  22
ENDBRANCH  15  21
ENDBRANCH  14  15
ENDBRANCH   1  14
BRANCH   1  26
HETATM   26  O   UNK N   1      22.431  18.151   6.142  0.00  0.00    -0.392 OA
HETATM   27  H   UNK N   1      23.210  18.434   6.647  0.00  0.00     0.210 HD
ENDBRANCH   1  26
TORSDOF 17
ENDMDL
MODEL 5
REMARK VINA RESULT:      -4.9      2.065      3.983
REMARK  17 active torsions:
REMARK  status: ('A' for Active; 'I' for Inactive)
REMARK    1  A    between atoms: C_1  and  C_2 
REMARK    2  A    between atoms: C_1  and  N_14 
REMARK    3  A    between atoms: C_2  and  C_3 
REMARK    4  A    between atoms: C_2  and  O_13 
REMARK    5  A    between atoms: C_3  and  N_4 
REMARK    6  A    between atoms: N_4  and  C_5 
REMARK    7  A    between atoms: N_4  and  C_9 
REMARK    8  A    between atoms: C_5  and  C_6 
REMARK    9  A    between atoms: C_6  and  O_8 
REMARK   10  A    between atoms: C_9  and  C_10 
REMARK   11  A    between atoms: C_10  and  O_12 
REMARK   12  A    between atoms: N_14  and  C_15 
REMARK   13  A    between atoms: N_14  and  C_19 
REMARK   14  A    between atoms: C_15  and  C_16 
REMARK   15  A    between atoms: C_16  and  O_18 
REMARK   16  A    between atoms: C_19  and  C_20 
REMARK   17  A    between atoms: C_20  and  O_22 
ROOT
HETATM    1  C   UNK N   1      35.997  15.348   9.878  0.00  0.00     0.174 C 
ENDROOT
BRANCH   1   2
HETATM    2  C   UNK N   1      34.704  16.107  10.174  0.00  0.00     0.307 C 
BRANCH   2   3
HETATM    3  N   UNK N   1      33.799  16.186   9.014  0.00  0.00     0.110 N 
BRANCH   3   4
HETATM    4  C   UNK N   1      33.422  17.577   8.792  0.00  0.00     0.382 C 
BRANCH   4   5
HETATM    5  C   UNK N   1      34.441  18.259   7.936  0.00  0.00     0.169 C 
HETATM    6  O   UNK N   1      34.524  17.989   6.750  0.00  0.00    -0.649 OA
BRANCH   5   7
HETATM    7  O   UNK N   1      35.270  19.171   8.478  0.00  0.00    -0.775 OA
HETATM    8  H   UNK N   1      35.170  20.089   8.318  0.00  0.00     0.167 HD
ENDBRANCH   5   7
ENDBRANCH   4   5
ENDBRANCH   3   4
BRANCH   3   9
HETATM    9  C   UNK N   1      32.584  15.406   9.239  0.00  0.00     0.382 C 
BRANCH   9  10
HETATM   10  C   UNK N   1      32.444  14.339   8.201  0.00  0.00     0.169 C 
HETATM   11  O   UNK N   1      32.541  13.164   8.513  0.00  0.00    -0.649 OA
BRANCH  10  12
HETATM   12  O   UNK N   1      32.205  14.676   6.920  0.00  0.00    -0.775 OA
HETATM   13  H   UNK N   1      32.830  14.465   6.254  0.00  0.00     0.167 HD
ENDBRANCH  10  12
ENDBRANCH   9  10
ENDBRANCH   3   9
ENDBRANCH   2   3
ENDBRANCH   1   2
BRANCH   1  14
HETATM   14  C   UNK N   1      35.753  13.856   9.957  0.00  0.00     0.307 C 
BRANCH  14  15
HETATM   15  N   UNK N   1      36.377  13.320  11.162  0.00  0.00     0.110 N 
BRANCH  15  16
HETATM   16  C   UNK N   1      37.113  12.113  10.812  0.00  0.00     0.382 C 
BRANCH  16  17
HETATM   17  C   UNK N   1      38.443  12.483  10.241  0.00  0.00     0.169 C 
HETATM   18  O   UNK N   1      38.922  11.831   9.328  0.00  0.00    -0.649 OA
BRANCH  17  19
HETATM   19  O   UNK N   1      39.117  13.535  10.741  0.00  0.00    -0.775 OA
HETATM   20  H   UNK N   1      40.044  13.670  10.734  0.00  0.00     0.167 HD
ENDBRANCH  17  19
ENDBRANCH  16  17
ENDBRANCH  15  16
BRANCH  15  21
HETATM   21  C   UNK N   1      35.402  13.040  12.226  0.00  0.00     0.382 C 
BRANCH  21  22
HETATM   22  C   UNK N   1      35.688  13.755  13.517  0.00  0.00     0.169 C 
HETATM   23  O   UNK N   1      35.018  13.518  14.508  0.00  0.00    -0.649 OA
BRANCH  22  24
HETATM   24  O   UNK N   1      36.718  14.618  13.594  0.00  0.00    -0.775 OA
HETATM   25  H   UNK N   1      37.239  14.759  14.359  0.00  0.00     0.167 HD
ENDBRANCH  22  24
ENDBRANCH  21  22
ENDBRANCH  15  21
ENDBRANCH  14  15
ENDBRANCH   1  14
BRANCH   1  26
HETATM   26  O   UNK N   1      36.986  15.710  10.791  0.00  0.00    -0.392 OA
HETATM   27  H   UNK N   1      36.791  15.745  11.742  0.00  0.00     0.210 HD
ENDBRANCH   1  26
TORSDOF 17
ENDMDL
MODEL 6
REMARK VINA RESULT:      -4.9      2.081      6.759
REMARK  17 active torsions:
REMARK  status: ('A' for Active; 'I' for Inactive)
REMARK    1  A    between atoms: C_1  and  C_2 
REMARK    2  A    between atoms: C_1  and  N_14 
REMARK    3  A    between atoms: C_2  and  C_3 
REMARK    4  A    between atoms: C_2  and  O_13 
REMARK    5  A    between atoms: C_3  and  N_4 
REMARK    6  A    between atoms: N_4  and  C_5 
REMARK    7  A    between atoms: N_4  and  C_9 
REMARK    8  A    between atoms: C_5  and  C_6 
REMARK    9  A    between atoms: C_6  and  O_8 
REMARK   10  A    between atoms: C_9  and  C_10 
REMARK   11  A    between atoms: C_10  and  O_12 
REMARK   12  A    between atoms: N_14  and  C_15 
REMARK   13  A    between atoms: N_14  and  C_19 
REMARK   14  A    between atoms: C_15  and  C_16 
REMARK   15  A    between atoms: C_16  and  O_18 
REMARK   16  A    between atoms: C_19  and  C_20 
REMARK   17  A    between atoms: C_20  and  O_22 
ROOT
HETATM    1  C   UNK N   1      35.576  15.475  10.600  0.00  0.00     0.174 C 
ENDROOT
BRANCH   1   2
HETATM    2  C   UNK N   1      35.176  14.220  11.377  0.00  0.00     0.307 C 
BRANCH   2   3
HETATM    3  N   UNK N   1      36.326  13.510  11.963  0.00  0.00     0.110 N 
BRANCH   3   4
HETATM    4  C   UNK N   1      36.657  12.361  11.128  0.00  0.00     0.382 C 
BRANCH   4   5
HETATM    5  C   UNK N   1      37.967  12.578  10.442  0.00  0.00     0.169 C 
HETATM    6  O   UNK N   1      38.335  11.813   9.566  0.00  0.00    -0.649 OA
BRANCH   5   7
HETATM    7  O   UNK N   1      38.744  13.619  10.794  0.00  0.00    -0.775 OA
HETATM    8  H   UNK N   1      38.828  13.898  11.684  0.00  0.00     0.167 HD
ENDBRANCH   5   7
ENDBRANCH   4   5
ENDBRANCH   3   4
BRANCH   3   9
HETATM    9  C   UNK N   1      36.021  13.034  13.310  0.00  0.00     0.382 C 
BRANCH   9  10
HETATM   10  C   UNK N   1      36.394  14.062  14.329  0.00  0.00     0.169 C 
HETATM   11  O   UNK N   1      36.216  13.842  15.515  0.00  0.00    -0.649 OA
BRANCH  10  12
HETATM   12  O   UNK N   1      36.929  15.233  13.937  0.00  0.00    -0.775 OA
HETATM   13  H   UNK N   1      36.746  16.018  14.415  0.00  0.00     0.167 HD
ENDBRANCH  10  12
ENDBRANCH   9  10
ENDBRANCH   3   9
ENDBRANCH   2   3
ENDBRANCH   1   2
BRANCH   1  14
HETATM   14  C   UNK N   1      35.576  15.188   9.114  0.00  0.00     0.307 C 
BRANCH  14  15
HETATM   15  N   UNK N   1      34.467  15.894   8.479  0.00  0.00     0.110 N 
BRANCH  15  16
HETATM   16  C   UNK N   1      34.308  17.191   9.122  0.00  0.00     0.382 C 
BRANCH  16  17
HETATM   17  C   UNK N   1      34.693  18.276   8.171  0.00  0.00     0.169 C 
HETATM   18  O   UNK N   1      35.297  19.257   8.570  0.00  0.00    -0.649 OA
BRANCH  17  19
HETATM   19  O   UNK N   1      34.367  18.172   6.869  0.00  0.00    -0.775 OA
HETATM   20  H   UNK N   1      34.149  17.390   6.400  0.00  0.00     0.167 HD
ENDBRANCH  17  19
ENDBRANCH  16  17
ENDBRANCH  15  16
BRANCH  15  21
HETATM   21  C   UNK N   1      33.211  15.133   8.530  0.00  0.00     0.382 C 
BRANCH  21  22
HETATM   22  C   UNK N   1      32.585  14.901   7.183  0.00  0.00     0.169 C 
HETATM   23  O   UNK N   1      31.790  13.990   7.028  0.00  0.00    -0.649 OA
BRANCH  22  24
HETATM   24  O   UNK N   1      32.864  15.730   6.160  0.00  0.00    -0.775 OA
HETATM   25  H   UNK N   1      32.472  15.679   5.310  0.00  0.00     0.167 HD
ENDBRANCH  22  24
ENDBRANCH  21  22
ENDBRANCH  15  21
ENDBRANCH  14  15
ENDBRANCH   1  14
BRANCH   1  26
HETATM   26  O   UNK N   1      36.844  15.900  10.996  0.00  0.00    -0.392 OA
HETATM   27  H   UNK N   1      37.551  16.022  10.341  0.00  0.00     0.210 HD
ENDBRANCH   1  26
TORSDOF 17
ENDMDL
MODEL 7
REMARK VINA RESULT:      -4.8      2.180      6.046
REMARK  17 active torsions:
REMARK  status: ('A' for Active; 'I' for Inactive)
REMARK    1  A    between atoms: C_1  and  C_2 
REMARK    2  A    between atoms: C_1  and  N_14 
REMARK    3  A    between atoms: C_2  and  C_3 
REMARK    4  A    between atoms: C_2  and  O_13 
REMARK    5  A    between atoms: C_3  and  N_4 
REMARK    6  A    between atoms: N_4  and  C_5 
REMARK    7  A    between atoms: N_4  and  C_9 
REMARK    8  A    between atoms: C_5  and  C_6 
REMARK    9  A    between atoms: C_6  and  O_8 
REMARK   10  A    between atoms: C_9  and  C_10 
REMARK   11  A    between atoms: C_10  and  O_12 
REMARK   12  A    between atoms: N_14  and  C_15 
REMARK   13  A    between atoms: N_14  and  C_19 
REMARK   14  A    between atoms: C_15  and  C_16 
REMARK   15  A    between atoms: C_16  and  O_18 
REMARK   16  A    between atoms: C_19  and  C_20 
REMARK   17  A    between atoms: C_20  and  O_22 
ROOT
HETATM    1  C   UNK N   1      32.059  15.472   9.012  0.00  0.00     0.174 C 
ENDROOT
BRANCH   1   2
HETATM    2  C   UNK N   1      33.194  14.760   8.276  0.00  0.00     0.307 C 
BRANCH   2   3
HETATM    3  N   UNK N   1      34.466  15.504   8.315  0.00  0.00     0.110 N 
BRANCH   3   4
HETATM    4  C   UNK N   1      35.143  15.362   7.031  0.00  0.00     0.382 C 
BRANCH   4   5
HETATM    5  C   UNK N   1      34.499  16.238   6.005  0.00  0.00     0.169 C 
HETATM    6  O   UNK N   1      34.070  15.757   4.970  0.00  0.00    -0.649 OA
BRANCH   5   7
HETATM    7  O   UNK N   1      34.396  17.562   6.224  0.00  0.00    -0.775 OA
HETATM    8  H   UNK N   1      33.880  18.117   5.673  0.00  0.00     0.167 HD
ENDBRANCH   5   7
ENDBRANCH   4   5
ENDBRANCH   3   4
BRANCH   3   9
HETATM    9  C   UNK N   1      35.344  14.992   9.363  0.00  0.00     0.382 C 
BRANCH   9  10
HETATM   10  C   UNK N   1      35.726  16.084  10.310  0.00  0.00     0.169 C 
HETATM   11  O   UNK N   1      34.918  16.950  10.604  0.00  0.00    -0.649 OA
BRANCH  10  12
HETATM   12  O   UNK N   1      36.961  16.110  10.843  0.00  0.00    -0.775 OA
HETATM   13  H   UNK N   1      37.411  15.309  11.027  0.00  0.00     0.167 HD
ENDBRANCH  10  12
ENDBRANCH   9  10
ENDBRANCH   3   9
ENDBRANCH   2   3
ENDBRANCH   1   2
BRANCH   1  14
HETATM   14  C   UNK N   1      32.067  16.948   8.675  0.00  0.00     0.307 C 
BRANCH  14  15
HETATM   15  N   UNK N   1      30.768  17.334   8.132  0.00  0.00     0.110 N 
BRANCH  15  16
HETATM   16  C   UNK N   1      29.771  17.241   9.189  0.00  0.00     0.382 C 
BRANCH  16  17
HETATM   17  C   UNK N   1      28.653  18.192   8.913  0.00  0.00     0.169 C 
HETATM   18  O   UNK N   1      28.849  19.192   8.243  0.00  0.00    -0.649 OA
BRANCH  17  19
HETATM   19  O   UNK N   1      27.428  17.947   9.412  0.00  0.00    -0.775 OA
HETATM   20  H   UNK N   1      26.861  17.232   9.197  0.00  0.00     0.167 HD
ENDBRANCH  17  19
ENDBRANCH  16  17
ENDBRANCH  15  16
BRANCH  15  21
HETATM   21  C   UNK N   1      30.374  16.516   6.976  0.00  0.00     0.382 C 
BRANCH  21  22
HETATM   22  C   UNK N   1      30.394  17.259   5.670  0.00  0.00     0.169 C 
HETATM   23  O   UNK N   1      29.374  17.775   5.245  0.00  0.00    -0.649 OA
BRANCH  22  24
HETATM   24  O   UNK N   1      31.549  17.400   4.993  0.00  0.00    -0.775 OA
HETATM   25  H   UNK N   1      32.362  17.005   5.239  0.00  0.00     0.167 HD
ENDBRANCH  22  24
ENDBRANCH  21  22
ENDBRANCH  15  21
ENDBRANCH  14  15
ENDBRANCH   1  14
BRANCH   1  26
HETATM   26  O   UNK N   1      32.199  15.304  10.389  0.00  0.00    -0.392 OA
HETATM   27  H   UNK N   1      31.490  15.575  10.994  0.00  0.00     0.210 HD
ENDBRANCH   1  26
TORSDOF 17
ENDMDL
MODEL 8
REMARK VINA RESULT:      -4.8      1.752      5.884
REMARK  17 active torsions:
REMARK  status: ('A' for Active; 'I' for Inactive)
REMARK    1  A    between atoms: C_1  and  C_2 
REMARK    2  A    between atoms: C_1  and  N_14 
REMARK    3  A    between atoms: C_2  and  C_3 
REMARK    4  A    between atoms: C_2  and  O_13 
REMARK    5  A    between atoms: C_3  and  N_4 
REMARK    6  A    between atoms: N_4  and  C_5 
REMARK    7  A    between atoms: N_4  and  C_9 
REMARK    8  A    between atoms: C_5  and  C_6 
REMARK    9  A    between atoms: C_6  and  O_8 
REMARK   10  A    between atoms: C_9  and  C_10 
REMARK   11  A    between atoms: C_10  and  O_12 
REMARK   12  A    between atoms: N_14  and  C_15 
REMARK   13  A    between atoms: N_14  and  C_19 
REMARK   14  A    between atoms: C_15  and  C_16 
REMARK   15  A    between atoms: C_16  and  O_18 
REMARK   16  A    between atoms: C_19  and  C_20 
REMARK   17  A    between atoms: C_20  and  O_22 
ROOT
HETATM    1  C   UNK N   1      33.860  14.862   8.552  0.00  0.00     0.174 C 
ENDROOT
BRANCH   1   2
HETATM    2  C   UNK N   1      34.001  13.755   9.596  0.00  0.00     0.307 C 
BRANCH   2   3
HETATM    3  N   UNK N   1      35.012  14.053  10.625  0.00  0.00     0.110 N 
BRANCH   3   4
HETATM    4  C   UNK N   1      34.953  13.032  11.666  0.00  0.00     0.382 C 
BRANCH   4   5
HETATM    5  C   UNK N   1      35.734  13.468  12.864  0.00  0.00     0.169 C 
HETATM    6  O   UNK N   1      35.170  13.648  13.930  0.00  0.00    -0.649 OA
BRANCH   5   7
HETATM    7  O   UNK N   1      37.061  13.666  12.764  0.00  0.00    -0.775 OA
HETATM    8  H   UNK N   1      37.609  13.106  12.252  0.00  0.00     0.167 HD
ENDBRANCH   5   7
ENDBRANCH   4   5
ENDBRANCH   3   4
BRANCH   3   9
HETATM    9  C   UNK N   1      34.773  15.357  11.238  0.00  0.00     0.382 C 
BRANCH   9  10
HETATM   10  C   UNK N   1      35.834  16.330  10.838  0.00  0.00     0.169 C 
HETATM   11  O   UNK N   1      35.536  17.476  10.545  0.00  0.00    -0.649 OA
BRANCH  10  12
HETATM   12  O   UNK N   1      37.122  15.942  10.805  0.00  0.00    -0.775 OA
HETATM   13  H   UNK N   1      37.803  16.578  10.696  0.00  0.00     0.167 HD
ENDBRANCH  10  12
ENDBRANCH   9  10
ENDBRANCH   3   9
ENDBRANCH   2   3
ENDBRANCH   1   2
BRANCH   1  14
HETATM   14  C   UNK N   1      32.524  15.556   8.707  0.00  0.00     0.307 C 
BRANCH  14  15
HETATM   15  N   UNK N   1      32.392  16.598   7.693  0.00  0.00     0.110 N 
BRANCH  15  16
HETATM   16  C   UNK N   1      32.832  17.864   8.264  0.00  0.00     0.382 C 
BRANCH  16  17
HETATM   17  C   UNK N   1      34.137  18.264   7.658  0.00  0.00     0.169 C 
HETATM   18  O   UNK N   1      34.467  17.831   6.566  0.00  0.00    -0.649 OA
BRANCH  17  19
HETATM   19  O   UNK N   1      34.956  19.100   8.324  0.00  0.00    -0.775 OA
HETATM   20  H   UNK N   1      35.751  19.483   8.011  0.00  0.00     0.167 HD
ENDBRANCH  17  19
ENDBRANCH  16  17
ENDBRANCH  15  16
BRANCH  15  21
HETATM   21  C   UNK N   1      31.022  16.712   7.176  0.00  0.00     0.382 C 
BRANCH  21  22
HETATM   22  C   UNK N   1      30.950  17.059   5.715  0.00  0.00     0.169 C 
HETATM   23  O   UNK N   1      31.843  16.712   4.960  0.00  0.00    -0.649 OA
BRANCH  22  24
HETATM   24  O   UNK N   1      29.875  17.707   5.229  0.00  0.00    -0.775 OA
HETATM   25  H   UNK N   1      29.133  17.289   4.837  0.00  0.00     0.167 HD
ENDBRANCH  22  24
ENDBRANCH  21  22
ENDBRANCH  15  21
ENDBRANCH  14  15
ENDBRANCH   1  14
BRANCH   1  26
HETATM   26  O   UNK N   1      33.965  14.327   7.268  0.00  0.00    -0.392 OA
HETATM   27  H   UNK N   1      34.156  13.384   7.141  0.00  0.00     0.210 HD
ENDBRANCH   1  26
TORSDOF 17
ENDMDL
MODEL 9
REMARK VINA RESULT:      -4.8      1.979      3.031
REMARK  17 active torsions:
REMARK  status: ('A' for Active; 'I' for Inactive)
REMARK    1  A    between atoms: C_1  and  C_2 
REMARK    2  A    between atoms: C_1  and  N_14 
REMARK    3  A    between atoms: C_2  and  C_3 
REMARK    4  A    between atoms: C_2  and  O_13 
REMARK    5  A    between atoms: C_3  and  N_4 
REMARK    6  A    between atoms: N_4  and  C_5 
REMARK    7  A    between atoms: N_4  and  C_9 
REMARK    8  A    between atoms: C_5  and  C_6 
REMARK    9  A    between atoms: C_6  and  O_8 
REMARK   10  A    between atoms: C_9  and  C_10 
REMARK   11  A    between atoms: C_10  and  O_12 
REMARK   12  A    between atoms: N_14  and  C_15 
REMARK   13  A    between atoms: N_14  and  C_19 
REMARK   14  A    between atoms: C_15  and  C_16 
REMARK   15  A    between atoms: C_16  and  O_18 
REMARK   16  A    between atoms: C_19  and  C_20 
REMARK   17  A    between atoms: C_20  and  O_22 
ROOT
HETATM    1  C   UNK N   1      33.737  14.853   9.984  0.00  0.00     0.174 C 
ENDROOT
BRANCH   1   2
HETATM    2  C   UNK N   1      32.987  15.042   8.665  0.00  0.00     0.307 C 
BRANCH   2   3
HETATM    3  N   UNK N   1      32.913  16.449   8.237  0.00  0.00     0.110 N 
BRANCH   3   4
HETATM    4  C   UNK N   1      33.920  17.223   8.954  0.00  0.00     0.382 C 
BRANCH   4   5
HETATM    5  C   UNK N   1      34.559  18.217   8.039  0.00  0.00     0.169 C 
HETATM    6  O   UNK N   1      34.404  18.128   6.833  0.00  0.00    -0.649 OA
BRANCH   5   7
HETATM    7  O   UNK N   1      35.311  19.211   8.548  0.00  0.00    -0.775 OA
HETATM    8  H   UNK N   1      34.968  20.072   8.684  0.00  0.00     0.167 HD
ENDBRANCH   5   7
ENDBRANCH   4   5
ENDBRANCH   3   4
BRANCH   3   9
HETATM    9  C   UNK N   1      31.599  17.019   8.522  0.00  0.00     0.382 C 
BRANCH   9  10
HETATM   10  C   UNK N   1      30.870  17.324   7.253  0.00  0.00     0.169 C 
HETATM   11  O   UNK N   1      29.682  17.598   7.279  0.00  0.00    -0.649 OA
BRANCH  10  12
HETATM   12  O   UNK N   1      31.528  17.301   6.079  0.00  0.00    -0.775 OA
HETATM   13  H   UNK N   1      31.864  16.493   5.744  0.00  0.00     0.167 HD
ENDBRANCH  10  12
ENDBRANCH   9  10
ENDBRANCH   3   9
ENDBRANCH   2   3
ENDBRANCH   1   2
BRANCH   1  14
HETATM   14  C   UNK N   1      34.409  13.497  10.010  0.00  0.00     0.307 C 
BRANCH  14  15
HETATM   15  N   UNK N   1      35.765  13.632  10.531  0.00  0.00     0.110 N 
BRANCH  15  16
HETATM   16  C   UNK N   1      35.821  14.803  11.396  0.00  0.00     0.382 C 
BRANCH  16  17
HETATM   17  C   UNK N   1      35.817  14.372  12.827  0.00  0.00     0.169 C 
HETATM   18  O   UNK N   1      34.878  13.736  13.275  0.00  0.00    -0.649 OA
BRANCH  17  19
HETATM   19  O   UNK N   1      36.851  14.695  13.625  0.00  0.00    -0.775 OA
HETATM   20  H   UNK N   1      37.518  15.332  13.459  0.00  0.00     0.167 HD
ENDBRANCH  17  19
ENDBRANCH  16  17
ENDBRANCH  15  16
BRANCH  15  21
HETATM   21  C   UNK N   1      36.772  13.729   9.465  0.00  0.00     0.382 C 
BRANCH  21  22
HETATM   22  C   UNK N   1      38.185  13.820   9.969  0.00  0.00     0.169 C 
HETATM   23  O   UNK N   1      38.773  12.813  10.324  0.00  0.00    -0.649 OA
BRANCH  22  24
HETATM   24  O   UNK N   1      38.820  15.008   9.981  0.00  0.00    -0.775 OA
HETATM   25  H   UNK N   1      39.470  15.258  10.607  0.00  0.00     0.167 HD
ENDBRANCH  22  24
ENDBRANCH  21  22
ENDBRANCH  15  21
ENDBRANCH  14  15
ENDBRANCH   1  14
BRANCH   1  26
HETATM   26  O   UNK N   1      32.853  14.960  11.057  0.00  0.00    -0.392 OA
HETATM   27  H   UNK N   1      32.206  14.258  11.236  0.00  0.00     0.210 HD
ENDBRANCH   1  26
TORSDOF 17
ENDMDL
