MODEL 1
REMARK VINA RESULT:      -5.5      0.000      0.000
REMARK  5 active torsions:
REMARK  status: ('A' for Active; 'I' for Inactive)
REMARK    1  A    between atoms: C_2  and  N_4 
REMARK    2  A    between atoms: N_4  and  C_5 
REMARK    3  A    between atoms: C_5  and  C_6 
REMARK    4  A    between atoms: C_6  and  C_7 
REMARK    5  A    between atoms: C_6  and  O_15 
ROOT
HETATM    1  C   UNK N   1      28.523  18.653   8.555  0.00  0.00     0.168 C 
ENDROOT
BRANCH   1   2
HETATM    2  C   UNK N   1      29.558  17.542   8.435  0.00  0.00     0.150 C 
BRANCH   2   3
HETATM    3  N   UNK N   1      30.837  18.029   8.937  0.00  0.00    -0.415 N 
HETATM    4  H   UNK N   1      30.957  18.741   9.657  0.00  0.00     0.153 HD
BRANCH   3   5
HETATM    5  C   UNK N   1      31.913  17.338   8.246  0.00  0.00     0.068 C 
HETATM    6  C   UNK N   1      33.137  18.232   8.163  0.00  0.00     0.031 C 
HETATM    7  C   UNK N   1      31.458  17.009   6.839  0.00  0.00     0.031 C 
ENDBRANCH   3   5
ENDBRANCH   2   3
ENDBRANCH   1   2
BRANCH   1   8
HETATM    8  C   UNK N   1      27.994  19.107   7.215  0.00  0.00    -0.026 A 
HETATM    9  C   UNK N   1      27.540  20.420   7.026  0.00  0.00     0.011 A 
HETATM   10  C   UNK N   1      27.084  20.837   5.772  0.00  0.00     0.026 A 
HETATM   11  C   UNK N   1      27.065  19.943   4.696  0.00  0.00     0.055 A 
HETATM   12  C   UNK N   1      27.509  18.623   4.880  0.00  0.00     0.056 A 
HETATM   13 Cl   UNK N   1      26.482  20.499   3.136  0.00  0.00    -0.083 Cl
HETATM   14  C   UNK N   1      27.982  18.218   6.131  0.00  0.00     0.035 A 
HETATM   15 Cl   UNK N   1      27.478  17.456   3.569  0.00  0.00    -0.083 Cl
ENDBRANCH   1   8
BRANCH   1  16
HETATM   16  O   UNK N   1      27.488  18.238   9.396  0.00  0.00    -0.389 OA
HETATM   17  H   UNK N   1      26.896  18.869   9.834  0.00  0.00     0.210 HD
ENDBRANCH   1  16
TORSDOF 5
ENDMDL
MODEL 2
REMARK VINA RESULT:      -5.4      3.164      5.327
REMARK  5 active torsions:
REMARK  status: ('A' for Active; 'I' for Inactive)
REMARK    1  A    between atoms: C_2  and  N_4 
REMARK    2  A    between atoms: N_4  and  C_5 
REMARK    3  A    between atoms: C_5  and  C_6 
REMARK    4  A    between atoms: C_6  and  C_7 
REMARK    5  A    between atoms: C_6  and  O_15 
ROOT
HETATM    1  C   UNK N   1      29.463  17.580   9.392  0.00  0.00     0.168 C 
ENDROOT
BRANCH   1   2
HETATM    2  C   UNK N   1      28.105  17.674   8.710  0.00  0.00     0.150 C 
BRANCH   2   3
HETATM    3  N   UNK N   1      27.746  19.078   8.560  0.00  0.00    -0.415 N 
HETATM    4  H   UNK N   1      27.425  19.691   9.311  0.00  0.00     0.153 HD
BRANCH   3   5
HETATM    5  C   UNK N   1      27.915  19.467   7.170  0.00  0.00     0.068 C 
HETATM    6  C   UNK N   1      27.047  20.672   6.857  0.00  0.00     0.031 C 
HETATM    7  C   UNK N   1      27.482  18.316   6.285  0.00  0.00     0.031 C 
ENDBRANCH   3   5
ENDBRANCH   2   3
ENDBRANCH   1   2
BRANCH   1   8
HETATM    8  C   UNK N   1      30.597  17.388   8.411  0.00  0.00    -0.026 A 
HETATM    9  C   UNK N   1      30.413  16.653   7.231  0.00  0.00     0.011 A 
HETATM   10  C   UNK N   1      31.460  16.511   6.316  0.00  0.00     0.026 A 
HETATM   11  C   UNK N   1      32.706  17.092   6.576  0.00  0.00     0.055 A 
HETATM   12  C   UNK N   1      32.900  17.821   7.760  0.00  0.00     0.056 A 
HETATM   13 Cl   UNK N   1      34.000  16.891   5.407  0.00  0.00    -0.083 Cl
HETATM   14  C   UNK N   1      31.844  17.976   8.661  0.00  0.00     0.035 A 
HETATM   15 Cl   UNK N   1      34.453  18.546   8.145  0.00  0.00    -0.083 Cl
ENDBRANCH   1   8
BRANCH   1  16
HETATM   16  O   UNK N   1      29.665  18.709  10.188  0.00  0.00    -0.389 OA
HETATM   17  H   UNK N   1      29.267  19.568   9.973  0.00  0.00     0.210 HD
ENDBRANCH   1  16
TORSDOF 5
ENDMDL
MODEL 3
REMARK VINA RESULT:      -5.3      2.735      5.170
REMARK  5 active torsions:
REMARK  status: ('A' for Active; 'I' for Inactive)
REMARK    1  A    between atoms: C_2  and  N_4 
REMARK    2  A    between atoms: N_4  and  C_5 
REMARK    3  A    between atoms: C_5  and  C_6 
REMARK    4  A    between atoms: C_6  and  C_7 
REMARK    5  A    between atoms: C_6  and  O_15 
ROOT
HETATM    1  C   UNK N   1      28.099  18.170   7.972  0.00  0.00     0.168 C 
ENDROOT
BRANCH   1   2
HETATM    2  C   UNK N   1      27.658  19.512   7.401  0.00  0.00     0.150 C 
BRANCH   2   3
HETATM    3  N   UNK N   1      26.620  19.285   6.403  0.00  0.00    -0.415 N 
HETATM    4  H   UNK N   1      25.957  18.510   6.406  0.00  0.00     0.153 HD
BRANCH   3   5
HETATM    5  C   UNK N   1      26.683  20.339   5.404  0.00  0.00     0.068 C 
HETATM    6  C   UNK N   1      27.726  19.999   4.355  0.00  0.00     0.031 C 
HETATM    7  C   UNK N   1      27.083  21.632   6.083  0.00  0.00     0.031 C 
ENDBRANCH   3   5
ENDBRANCH   2   3
ENDBRANCH   1   2
BRANCH   1   8
HETATM    8  C   UNK N   1      29.570  17.900   7.761  0.00  0.00    -0.026 A 
HETATM    9  C   UNK N   1      30.504  18.169   8.773  0.00  0.00     0.011 A 
HETATM   10  C   UNK N   1      31.858  17.884   8.579  0.00  0.00     0.026 A 
HETATM   11  C   UNK N   1      32.297  17.340   7.367  0.00  0.00     0.055 A 
HETATM   12  C   UNK N   1      31.369  17.077   6.346  0.00  0.00     0.056 A 
HETATM   13 Cl   UNK N   1      34.006  16.998   7.155  0.00  0.00    -0.083 Cl
HETATM   14  C   UNK N   1      30.014  17.346   6.553  0.00  0.00     0.035 A 
HETATM   15 Cl   UNK N   1      31.873  16.420   4.797  0.00  0.00    -0.083 Cl
ENDBRANCH   1   8
BRANCH   1  16
HETATM   16  O   UNK N   1      27.758  18.104   9.325  0.00  0.00    -0.389 OA
HETATM   17  H   UNK N   1      27.313  18.836   9.780  0.00  0.00     0.210 HD
ENDBRANCH   1  16
TORSDOF 5
ENDMDL
MODEL 4
REMARK VINA RESULT:      -5.3      1.238      2.020
REMARK  5 active torsions:
REMARK  status: ('A' for Active; 'I' for Inactive)
REMARK    1  A    between atoms: C_2  and  N_4 
REMARK    2  A    between atoms: N_4  and  C_5 
REMARK    3  A    between atoms: C_5  and  C_6 
REMARK    4  A    between atoms: C_6  and  C_7 
REMARK    5  A    between atoms: C_6  and  O_15 
ROOT
HETATM    1  C   UNK N   1      28.989  17.969   8.990  0.00  0.00     0.168 C 
ENDROOT
BRANCH   1   2
HETATM    2  C   UNK N   1      30.193  17.041   8.907  0.00  0.00     0.150 C 
BRANCH   2   3
HETATM    3  N   UNK N   1      31.411  17.830   9.052  0.00  0.00    -0.415 N 
HETATM    4  H   UNK N   1      31.472  18.746   9.497  0.00  0.00     0.153 HD
BRANCH   3   5
HETATM    5  C   UNK N   1      32.522  17.103   8.460  0.00  0.00     0.068 C 
HETATM    6  C   UNK N   1      33.376  18.044   7.631  0.00  0.00     0.031 C 
HETATM    7  C   UNK N   1      31.970  16.023   7.551  0.00  0.00     0.031 C 
ENDBRANCH   3   5
ENDBRANCH   2   3
ENDBRANCH   1   2
BRANCH   1   8
HETATM    8  C   UNK N   1      28.574  18.509   7.641  0.00  0.00    -0.026 A 
HETATM    9  C   UNK N   1      28.892  17.822   6.460  0.00  0.00     0.011 A 
HETATM   10  C   UNK N   1      28.474  18.314   5.221  0.00  0.00     0.026 A 
HETATM   11  C   UNK N   1      27.743  19.505   5.146  0.00  0.00     0.055 A 
HETATM   12  C   UNK N   1      27.429  20.204   6.324  0.00  0.00     0.056 A 
HETATM   13 Cl   UNK N   1      27.237  20.097   3.573  0.00  0.00    -0.083 Cl
HETATM   14  C   UNK N   1      27.833  19.696   7.561  0.00  0.00     0.035 A 
HETATM   15 Cl   UNK N   1      26.538  21.717   6.281  0.00  0.00    -0.083 Cl
ENDBRANCH   1   8
BRANCH   1  16
HETATM   16  O   UNK N   1      27.932  17.307   9.620  0.00  0.00    -0.389 OA
HETATM   17  H   UNK N   1      27.195  17.787  10.030  0.00  0.00     0.210 HD
ENDBRANCH   1  16
TORSDOF 5
ENDMDL
MODEL 5
REMARK VINA RESULT:      -5.1      7.862     10.647
REMARK  5 active torsions:
REMARK  status: ('A' for Active; 'I' for Inactive)
REMARK    1  A    between atoms: C_2  and  N_4 
REMARK    2  A    between atoms: N_4  and  C_5 
REMARK    3  A    between atoms: C_5  and  C_6 
REMARK    4  A    between atoms: C_6  and  C_7 
REMARK    5  A    between atoms: C_6  and  O_15 
ROOT
HETATM    1  C   UNK N   1      35.811  15.867  11.278  0.00  0.00     0.168 C 
ENDROOT
BRANCH   1   2
HETATM    2  C   UNK N   1      34.871  15.973  10.085  0.00  0.00     0.150 C 
BRANCH   2   3
HETATM    3  N   UNK N   1      34.586  17.380   9.830  0.00  0.00    -0.415 N 
HETATM    4  H   UNK N   1      34.493  18.104  10.543  0.00  0.00     0.153 HD
BRANCH   3   5
HETATM    5  C   UNK N   1      34.454  17.586   8.397  0.00  0.00     0.068 C 
HETATM    6  C   UNK N   1      33.087  18.163   8.078  0.00  0.00     0.031 C 
HETATM    7  C   UNK N   1      34.590  16.250   7.696  0.00  0.00     0.031 C 
ENDBRANCH   3   5
ENDBRANCH   2   3
ENDBRANCH   1   2
BRANCH   1   8
HETATM    8  C   UNK N   1      35.608  14.597  12.070  0.00  0.00    -0.026 A 
HETATM    9  C   UNK N   1      35.025  13.465  11.481  0.00  0.00     0.011 A 
HETATM   10  C   UNK N   1      34.874  12.285  12.215  0.00  0.00     0.026 A 
HETATM   11  C   UNK N   1      35.290  12.227  13.549  0.00  0.00     0.055 A 
HETATM   12  C   UNK N   1      35.866  13.359  14.149  0.00  0.00     0.056 A 
HETATM   13 Cl   UNK N   1      35.080  10.730  14.443  0.00  0.00    -0.083 Cl
HETATM   14  C   UNK N   1      36.033  14.529  13.404  0.00  0.00     0.035 A 
HETATM   15 Cl   UNK N   1      36.379  13.345  15.828  0.00  0.00    -0.083 Cl
ENDBRANCH   1   8
BRANCH   1  16
HETATM   16  O   UNK N   1      37.133  15.989  10.842  0.00  0.00    -0.389 OA
HETATM   17  H   UNK N   1      37.366  16.467  10.031  0.00  0.00     0.210 HD
ENDBRANCH   1  16
TORSDOF 5
ENDMDL
MODEL 6
REMARK VINA RESULT:      -5.1      4.029      5.556
REMARK  5 active torsions:
REMARK  status: ('A' for Active; 'I' for Inactive)
REMARK    1  A    between atoms: C_2  and  N_4 
REMARK    2  A    between atoms: N_4  and  C_5 
REMARK    3  A    between atoms: C_5  and  C_6 
REMARK    4  A    between atoms: C_6  and  C_7 
REMARK    5  A    between atoms: C_6  and  O_15 
ROOT
HETATM    1  C   UNK N   1      34.666  17.773   8.040  0.00  0.00     0.168 C 
ENDROOT
BRANCH   1   2
HETATM    2  C   UNK N   1      34.644  16.974   9.336  0.00  0.00     0.150 C 
BRANCH   2   3
HETATM    3  N   UNK N   1      35.072  15.608   9.058  0.00  0.00    -0.415 N 
HETATM    4  H   UNK N   1      35.010  15.141   8.152  0.00  0.00     0.153 HD
BRANCH   3   5
HETATM    5  C   UNK N   1      35.599  15.017  10.277  0.00  0.00     0.068 C 
HETATM    6  C   UNK N   1      35.566  16.033  11.404  0.00  0.00     0.031 C 
HETATM    7  C   UNK N   1      37.037  14.606  10.039  0.00  0.00     0.031 C 
ENDBRANCH   3   5
ENDBRANCH   2   3
ENDBRANCH   1   2
BRANCH   1   8
HETATM    8  C   UNK N   1      33.430  17.556   7.199  0.00  0.00    -0.026 A 
HETATM    9  C   UNK N   1      32.163  17.454   7.792  0.00  0.00     0.011 A 
HETATM   10  C   UNK N   1      31.023  17.287   7.001  0.00  0.00     0.026 A 
HETATM   11  C   UNK N   1      31.137  17.208   5.609  0.00  0.00     0.055 A 
HETATM   12  C   UNK N   1      32.404  17.300   5.008  0.00  0.00     0.056 A 
HETATM   13 Cl   UNK N   1      29.686  16.994   4.645  0.00  0.00    -0.083 Cl
HETATM   14  C   UNK N   1      33.537  17.486   5.803  0.00  0.00     0.035 A 
HETATM   15 Cl   UNK N   1      32.603  17.178   3.267  0.00  0.00    -0.083 Cl
ENDBRANCH   1   8
BRANCH   1  16
HETATM   16  O   UNK N   1      34.853  19.126   8.330  0.00  0.00    -0.389 OA
HETATM   17  H   UNK N   1      35.623  19.621   8.006  0.00  0.00     0.210 HD
ENDBRANCH   1  16
TORSDOF 5
ENDMDL
MODEL 7
REMARK VINA RESULT:      -5.1      3.816      5.368
REMARK  5 active torsions:
REMARK  status: ('A' for Active; 'I' for Inactive)
REMARK    1  A    between atoms: C_2  and  N_4 
REMARK    2  A    between atoms: N_4  and  C_5 
REMARK    3  A    between atoms: C_5  and  C_6 
REMARK    4  A    between atoms: C_6  and  C_7 
REMARK    5  A    between atoms: C_6  and  O_15 
ROOT
HETATM    1  C   UNK N   1      34.490  17.820   8.128  0.00  0.00     0.168 C 
ENDROOT
BRANCH   1   2
HETATM    2  C   UNK N   1      34.837  17.030   9.383  0.00  0.00     0.150 C 
BRANCH   2   3
HETATM    3  N   UNK N   1      34.899  15.613   9.048  0.00  0.00    -0.415 N 
HETATM    4  H   UNK N   1      35.497  15.200   8.331  0.00  0.00     0.153 HD
BRANCH   3   5
HETATM    5  C   UNK N   1      33.973  14.882   9.897  0.00  0.00     0.068 C 
HETATM    6  C   UNK N   1      34.706  13.776  10.635  0.00  0.00     0.031 C 
HETATM    7  C   UNK N   1      32.904  14.255   9.027  0.00  0.00     0.031 C 
ENDBRANCH   3   5
ENDBRANCH   2   3
ENDBRANCH   1   2
BRANCH   1   8
HETATM    8  C   UNK N   1      33.039  17.681   7.731  0.00  0.00    -0.026 A 
HETATM    9  C   UNK N   1      32.682  17.207   6.460  0.00  0.00     0.011 A 
HETATM   10  C   UNK N   1      31.336  17.051   6.117  0.00  0.00     0.026 A 
HETATM   11  C   UNK N   1      30.332  17.378   7.035  0.00  0.00     0.055 A 
HETATM   12  C   UNK N   1      30.682  17.862   8.306  0.00  0.00     0.056 A 
HETATM   13 Cl   UNK N   1      28.651  17.174   6.569  0.00  0.00    -0.083 Cl
HETATM   14  C   UNK N   1      32.029  17.997   8.650  0.00  0.00     0.035 A 
HETATM   15 Cl   UNK N   1      29.460  18.312   9.483  0.00  0.00    -0.083 Cl
ENDBRANCH   1   8
BRANCH   1  16
HETATM   16  O   UNK N   1      34.841  19.160   8.308  0.00  0.00    -0.389 OA
HETATM   17  H   UNK N   1      34.631  19.841   7.650  0.00  0.00     0.210 HD
ENDBRANCH   1  16
TORSDOF 5
ENDMDL
MODEL 8
REMARK VINA RESULT:      -5.1      6.294      8.526
REMARK  5 active torsions:
REMARK  status: ('A' for Active; 'I' for Inactive)
REMARK    1  A    between atoms: C_2  and  N_4 
REMARK    2  A    between atoms: N_4  and  C_5 
REMARK    3  A    between atoms: C_5  and  C_6 
REMARK    4  A    between atoms: C_6  and  C_7 
REMARK    5  A    between atoms: C_6  and  O_15 
ROOT
HETATM    1  C   UNK N   1      36.204  15.034  10.872  0.00  0.00     0.168 C 
ENDROOT
BRANCH   1   2
HETATM    2  C   UNK N   1      35.927  14.602  12.305  0.00  0.00     0.150 C 
BRANCH   2   3
HETATM    3  N   UNK N   1      37.023  13.760  12.767  0.00  0.00    -0.415 N 
HETATM    4  H   UNK N   1      37.995  13.835  12.464  0.00  0.00     0.153 HD
BRANCH   3   5
HETATM    5  C   UNK N   1      36.511  12.796  13.727  0.00  0.00     0.068 C 
HETATM    6  C   UNK N   1      35.019  12.604  13.527  0.00  0.00     0.031 C 
HETATM    7  C   UNK N   1      36.746  13.328  15.126  0.00  0.00     0.031 C 
ENDBRANCH   3   5
ENDBRANCH   2   3
ENDBRANCH   1   2
BRANCH   1   8
HETATM    8  C   UNK N   1      34.946  15.383  10.112  0.00  0.00    -0.026 A 
HETATM    9  C   UNK N   1      33.871  14.484  10.046  0.00  0.00     0.011 A 
HETATM   10  C   UNK N   1      32.699  14.832   9.369  0.00  0.00     0.026 A 
HETATM   11  C   UNK N   1      32.592  16.076   8.739  0.00  0.00     0.055 A 
HETATM   12  C   UNK N   1      33.668  16.978   8.792  0.00  0.00     0.056 A 
HETATM   13 Cl   UNK N   1      31.107  16.479   7.893  0.00  0.00    -0.083 Cl
HETATM   14  C   UNK N   1      34.829  16.632   9.488  0.00  0.00     0.035 A 
HETATM   15 Cl   UNK N   1      33.594  18.541   7.995  0.00  0.00    -0.083 Cl
ENDBRANCH   1   8
BRANCH   1  16
HETATM   16  O   UNK N   1      37.109  16.098  10.872  0.00  0.00    -0.389 OA
HETATM   17  H   UNK N   1      38.025  15.996  10.568  0.00  0.00     0.210 HD
ENDBRANCH   1  16
TORSDOF 5
ENDMDL
MODEL 9
REMARK VINA RESULT:      -5.0     10.831     12.462
REMARK  5 active torsions:
REMARK  status: ('A' for Active; 'I' for Inactive)
REMARK    1  A    between atoms: C_2  and  N_4 
REMARK    2  A    between atoms: N_4  and  C_5 
REMARK    3  A    between atoms: C_5  and  C_6 
REMARK    4  A    between atoms: C_6  and  C_7 
REMARK    5  A    between atoms: C_6  and  O_15 
ROOT
HETATM    1  C   UNK N   1      29.629  22.656  -2.487  0.00  0.00     0.168 C 
ENDROOT
BRANCH   1   2
HETATM    2  C   UNK N   1      28.925  23.821  -3.171  0.00  0.00     0.150 C 
BRANCH   2   3
HETATM    3  N   UNK N   1      27.517  23.810  -2.796  0.00  0.00    -0.415 N 
HETATM    4  H   UNK N   1      27.136  23.406  -1.940  0.00  0.00     0.153 HD
BRANCH   3   5
HETATM    5  C   UNK N   1      26.742  24.466  -3.836  0.00  0.00     0.068 C 
HETATM    6  C   UNK N   1      27.146  23.933  -5.199  0.00  0.00     0.031 C 
HETATM    7  C   UNK N   1      27.028  25.953  -3.794  0.00  0.00     0.031 C 
ENDBRANCH   3   5
ENDBRANCH   2   3
ENDBRANCH   1   2
BRANCH   1   8
HETATM    8  C   UNK N   1      30.521  21.879  -3.426  0.00  0.00    -0.026 A 
HETATM    9  C   UNK N   1      30.035  21.402  -4.652  0.00  0.00     0.011 A 
HETATM   10  C   UNK N   1      30.879  20.713  -5.527  0.00  0.00     0.026 A 
HETATM   11  C   UNK N   1      32.215  20.482  -5.182  0.00  0.00     0.055 A 
HETATM   12  C   UNK N   1      32.706  20.948  -3.952  0.00  0.00     0.056 A 
HETATM   13 Cl   UNK N   1      33.247  19.609  -6.303  0.00  0.00    -0.083 Cl
HETATM   14  C   UNK N   1      31.863  21.653  -3.090  0.00  0.00     0.035 A 
HETATM   15 Cl   UNK N   1      34.368  20.660  -3.461  0.00  0.00    -0.083 Cl
ENDBRANCH   1   8
BRANCH   1  16
HETATM   16  O   UNK N   1      30.342  23.127  -1.381  0.00  0.00    -0.389 OA
HETATM   17  H   UNK N   1      29.904  23.361  -0.548  0.00  0.00     0.210 HD
ENDBRANCH   1  16
TORSDOF 5
ENDMDL
