MODEL 1
REMARK VINA RESULT:      -4.9      0.000      0.000
REMARK  8 active torsions:
REMARK  status: ('A' for Active; 'I' for Inactive)
REMARK    1  A    between atoms: N_9  and  C_2 
REMARK    2  A    between atoms: C_4  and  C_3 
REMARK    3  A    between atoms: C_5  and  C_3 
REMARK    4  A    between atoms: C_6  and  C_4 
REMARK    5  A    between atoms: C_7  and  C_5 
REMARK    6  A    between atoms: C_5  and  N_8 
REMARK    7  A    between atoms: O_11  and  C_6 
REMARK    8  A    between atoms: O_13  and  C_7 
ROOT
HETATM    1  C   UNK N   1      34.743  16.029   9.050  0.00  0.00     0.043 C 
ENDROOT
BRANCH   1   2
HETATM    2  C   UNK N   1      35.303  15.618  10.404  0.00  0.00     0.086 C 
BRANCH   2   3
HETATM    3  C   UNK N   1      34.314  14.772  11.177  0.00  0.00     0.111 C 
HETATM    4  N   UNK N   1      34.710  13.906  12.049  0.00  0.00    -0.375 N 
ATOM      5  HN  UNK N   1      34.004  13.363  12.546  1.00  0.00     0.161 HD
BRANCH   4   6
HETATM    6  C   UNK N   1      36.101  13.665  12.359  0.00  0.00     0.117 C 
HETATM    7  C   UNK N   1      36.412  14.054  13.795  0.00  0.00     0.026 C 
ENDBRANCH   4   6
BRANCH   3   8
HETATM    8  O   UNK N   1      32.990  14.921  10.963  0.00  0.00    -0.350 OA
HETATM    9  H   UNK N   1      32.674  15.476  10.278  0.00  0.00     0.219 HD
ENDBRANCH   3   8
ENDBRANCH   2   3
ENDBRANCH   1   2
BRANCH   1  10
HETATM   10  C   UNK N   1      34.014  17.364   9.116  0.00  0.00     0.173 C 
BRANCH  10  11
HETATM   11  C   UNK N   1      34.628  18.295   8.112  0.00  0.00     0.163 C 
HETATM   12  O   UNK N   1      34.471  18.118   6.913  0.00  0.00    -0.648 OA
BRANCH  11  13
HETATM   13  O   UNK N   1      35.357  19.345   8.539  0.00  0.00    -0.775 OA
HETATM   14  H   UNK N   1      36.293  19.366   8.496  0.00  0.00     0.167 HD
ENDBRANCH  11  13
ENDBRANCH  10  11
BRANCH  10  15
HETATM   15  N   UNK N   1      32.597  17.157   8.848  0.00  0.00    -0.418 N 
HETATM   16  H   UNK N   1      32.101  17.648   8.104  0.00  0.00     0.150 HD
HETATM   17  H   UNK N   1      32.081  16.494   9.427  0.00  0.00     0.150 HD
ENDBRANCH  10  15
ENDBRANCH   1  10
TORSDOF 8
ENDMDL
MODEL 2
REMARK VINA RESULT:      -4.7      3.874      6.199
REMARK  8 active torsions:
REMARK  status: ('A' for Active; 'I' for Inactive)
REMARK    1  A    between atoms: N_9  and  C_2 
REMARK    2  A    between atoms: C_4  and  C_3 
REMARK    3  A    between atoms: C_5  and  C_3 
REMARK    4  A    between atoms: C_6  and  C_4 
REMARK    5  A    between atoms: C_7  and  C_5 
REMARK    6  A    between atoms: C_5  and  N_8 
REMARK    7  A    between atoms: O_11  and  C_6 
REMARK    8  A    between atoms: O_13  and  C_7 
ROOT
HETATM    1  C   UNK N   1      31.905  18.345   8.537  0.00  0.00     0.043 C 
ENDROOT
BRANCH   1   2
HETATM    2  C   UNK N   1      30.558  17.639   8.474  0.00  0.00     0.086 C 
BRANCH   2   3
HETATM    3  C   UNK N   1      29.516  18.364   9.300  0.00  0.00     0.111 C 
HETATM    4  N   UNK N   1      28.434  18.819   8.764  0.00  0.00    -0.375 N 
ATOM      5  HN  UNK N   1      27.762  19.296   9.364  1.00  0.00     0.161 HD
BRANCH   4   6
HETATM    6  C   UNK N   1      28.124  18.689   7.358  0.00  0.00     0.117 C 
HETATM    7  C   UNK N   1      27.643  20.012   6.784  0.00  0.00     0.026 C 
ENDBRANCH   4   6
BRANCH   3   8
HETATM    8  O   UNK N   1      29.710  18.536  10.624  0.00  0.00    -0.350 OA
HETATM    9  H   UNK N   1      30.018  17.833  11.161  0.00  0.00     0.219 HD
ENDBRANCH   3   8
ENDBRANCH   2   3
ENDBRANCH   1   2
BRANCH   1  10
HETATM   10  C   UNK N   1      33.064  17.382   8.317  0.00  0.00     0.173 C 
BRANCH  10  11
HETATM   11  C   UNK N   1      34.179  18.122   7.637  0.00  0.00     0.163 C 
HETATM   12  O   UNK N   1      34.426  17.938   6.455  0.00  0.00    -0.648 OA
BRANCH  11  13
HETATM   13  O   UNK N   1      34.913  19.007   8.340  0.00  0.00    -0.775 OA
HETATM   14  H   UNK N   1      34.835  19.934   8.229  0.00  0.00     0.167 HD
ENDBRANCH  11  13
ENDBRANCH  10  11
BRANCH  10  15
HETATM   15  N   UNK N   1      33.493  16.840   9.599  0.00  0.00    -0.418 N 
HETATM   16  H   UNK N   1      33.418  17.365  10.470  0.00  0.00     0.150 HD
HETATM   17  H   UNK N   1      33.884  15.898   9.627  0.00  0.00     0.150 HD
ENDBRANCH  10  15
ENDBRANCH   1  10
TORSDOF 8
ENDMDL
MODEL 3
REMARK VINA RESULT:      -4.6      2.769      3.747
REMARK  8 active torsions:
REMARK  status: ('A' for Active; 'I' for Inactive)
REMARK    1  A    between atoms: N_9  and  C_2 
REMARK    2  A    between atoms: C_4  and  C_3 
REMARK    3  A    between atoms: C_5  and  C_3 
REMARK    4  A    between atoms: C_6  and  C_4 
REMARK    5  A    between atoms: C_7  and  C_5 
REMARK    6  A    between atoms: C_5  and  N_8 
REMARK    7  A    between atoms: O_11  and  C_6 
REMARK    8  A    between atoms: O_13  and  C_7 
ROOT
HETATM    1  C   UNK N   1      35.492  13.939  11.776  0.00  0.00     0.043 C 
ENDROOT
BRANCH   1   2
HETATM    2  C   UNK N   1      35.390  13.443  13.212  0.00  0.00     0.086 C 
BRANCH   2   3
HETATM    3  C   UNK N   1      36.556  13.927  14.048  0.00  0.00     0.111 C 
HETATM    4  N   UNK N   1      37.240  13.114  14.779  0.00  0.00    -0.375 N 
ATOM      5  HN  UNK N   1      38.018  13.489  15.321  1.00  0.00     0.161 HD
BRANCH   4   6
HETATM    6  C   UNK N   1      36.963  11.698  14.872  0.00  0.00     0.117 C 
HETATM    7  C   UNK N   1      38.121  10.882  14.321  0.00  0.00     0.026 C 
ENDBRANCH   4   6
BRANCH   3   8
HETATM    8  O   UNK N   1      36.898  15.233  14.030  0.00  0.00    -0.350 OA
HETATM    9  H   UNK N   1      37.500  15.563  13.393  0.00  0.00     0.219 HD
ENDBRANCH   3   8
ENDBRANCH   2   3
ENDBRANCH   1   2
BRANCH   1  10
HETATM   10  C   UNK N   1      34.703  15.224  11.561  0.00  0.00     0.173 C 
BRANCH  10  11
HETATM   11  C   UNK N   1      35.611  16.242  10.934  0.00  0.00     0.163 C 
HETATM   12  O   UNK N   1      35.157  17.242  10.398  0.00  0.00    -0.648 OA
BRANCH  11  13
HETATM   13  O   UNK N   1      36.944  16.054  10.969  0.00  0.00    -0.775 OA
HETATM   14  H   UNK N   1      37.558  16.761  10.976  0.00  0.00     0.167 HD
ENDBRANCH  11  13
ENDBRANCH  10  11
BRANCH  10  15
HETATM   15  N   UNK N   1      33.551  14.949  10.713  0.00  0.00    -0.418 N 
HETATM   16  H   UNK N   1      33.631  14.804   9.707  0.00  0.00     0.150 HD
HETATM   17  H   UNK N   1      32.627  14.899  11.143  0.00  0.00     0.150 HD
ENDBRANCH  10  15
ENDBRANCH   1  10
TORSDOF 8
ENDMDL
MODEL 4
REMARK VINA RESULT:      -4.6     16.228     16.989
REMARK  8 active torsions:
REMARK  status: ('A' for Active; 'I' for Inactive)
REMARK    1  A    between atoms: N_9  and  C_2 
REMARK    2  A    between atoms: C_4  and  C_3 
REMARK    3  A    between atoms: C_5  and  C_3 
REMARK    4  A    between atoms: C_6  and  C_4 
REMARK    5  A    between atoms: C_7  and  C_5 
REMARK    6  A    between atoms: C_5  and  N_8 
REMARK    7  A    between atoms: O_11  and  C_6 
REMARK    8  A    between atoms: O_13  and  C_7 
ROOT
HETATM    1  C   UNK N   1      21.089  18.203   2.631  0.00  0.00     0.043 C 
ENDROOT
BRANCH   1   2
HETATM    2  C   UNK N   1      20.086  17.105   2.306  0.00  0.00     0.086 C 
BRANCH   2   3
HETATM    3  C   UNK N   1      20.056  16.804   0.823  0.00  0.00     0.111 C 
HETATM    4  N   UNK N   1      19.775  15.624   0.384  0.00  0.00    -0.375 N 
ATOM      5  HN  UNK N   1      19.764  15.474  -0.625  1.00  0.00     0.161 HD
BRANCH   4   6
HETATM    6  C   UNK N   1      19.475  14.502   1.245  0.00  0.00     0.117 C 
HETATM    7  C   UNK N   1      20.132  13.232   0.730  0.00  0.00     0.026 C 
ENDBRANCH   4   6
BRANCH   3   8
HETATM    8  O   UNK N   1      20.320  17.784  -0.066  0.00  0.00    -0.350 OA
HETATM    9  H   UNK N   1      21.030  17.705  -0.672  0.00  0.00     0.219 HD
ENDBRANCH   3   8
ENDBRANCH   2   3
ENDBRANCH   1   2
BRANCH   1  10
HETATM   10  C   UNK N   1      20.410  19.547   2.853  0.00  0.00     0.173 C 
BRANCH  10  11
HETATM   11  C   UNK N   1      21.140  20.590   2.057  0.00  0.00     0.163 C 
HETATM   12  O   UNK N   1      21.278  20.474   0.848  0.00  0.00    -0.648 OA
BRANCH  11  13
HETATM   13  O   UNK N   1      21.643  21.671   2.683  0.00  0.00    -0.775 OA
HETATM   14  H   UNK N   1      22.542  21.740   2.937  0.00  0.00     0.167 HD
ENDBRANCH  11  13
ENDBRANCH  10  11
BRANCH  10  15
HETATM   15  N   UNK N   1      19.012  19.457   2.452  0.00  0.00    -0.418 N 
HETATM   16  H   UNK N   1      18.246  19.464   3.124  0.00  0.00     0.150 HD
HETATM   17  H   UNK N   1      18.792  19.384   1.458  0.00  0.00     0.150 HD
ENDBRANCH  10  15
ENDBRANCH   1  10
TORSDOF 8
ENDMDL
MODEL 5
REMARK VINA RESULT:      -4.5      2.641      3.650
REMARK  8 active torsions:
REMARK  status: ('A' for Active; 'I' for Inactive)
REMARK    1  A    between atoms: N_9  and  C_2 
REMARK    2  A    between atoms: C_4  and  C_3 
REMARK    3  A    between atoms: C_5  and  C_3 
REMARK    4  A    between atoms: C_6  and  C_4 
REMARK    5  A    between atoms: C_7  and  C_5 
REMARK    6  A    between atoms: C_5  and  N_8 
REMARK    7  A    between atoms: O_11  and  C_6 
REMARK    8  A    between atoms: O_13  and  C_7 
ROOT
HETATM    1  C   UNK N   1      35.734  14.087  11.891  0.00  0.00     0.043 C 
ENDROOT
BRANCH   1   2
HETATM    2  C   UNK N   1      36.017  13.880  13.372  0.00  0.00     0.086 C 
BRANCH   2   3
HETATM    3  C   UNK N   1      35.045  12.896  13.988  0.00  0.00     0.111 C 
HETATM    4  N   UNK N   1      34.997  12.710  15.264  0.00  0.00    -0.375 N 
ATOM      5  HN  UNK N   1      34.322  12.039  15.630  1.00  0.00     0.161 HD
BRANCH   4   6
HETATM    6  C   UNK N   1      35.849  13.404  16.204  0.00  0.00     0.117 C 
HETATM    7  C   UNK N   1      35.157  13.562  17.548  0.00  0.00     0.026 C 
ENDBRANCH   4   6
BRANCH   3   8
HETATM    8  O   UNK N   1      34.205  12.197  13.196  0.00  0.00    -0.350 OA
HETATM    9  H   UNK N   1      34.452  11.362  12.851  0.00  0.00     0.219 HD
ENDBRANCH   3   8
ENDBRANCH   2   3
ENDBRANCH   1   2
BRANCH   1  10
HETATM   10  C   UNK N   1      34.945  15.365  11.636  0.00  0.00     0.173 C 
BRANCH  10  11
HETATM   11  C   UNK N   1      35.813  16.317  10.865  0.00  0.00     0.163 C 
HETATM   12  O   UNK N   1      35.347  17.332  10.370  0.00  0.00    -0.648 OA
BRANCH  11  13
HETATM   13  O   UNK N   1      37.127  16.051  10.723  0.00  0.00    -0.775 OA
HETATM   14  H   UNK N   1      37.609  15.530  11.334  0.00  0.00     0.167 HD
ENDBRANCH  11  13
ENDBRANCH  10  11
BRANCH  10  15
HETATM   15  N   UNK N   1      33.729  15.045  10.901  0.00  0.00    -0.418 N 
HETATM   16  H   UNK N   1      33.180  15.752  10.413  0.00  0.00     0.150 HD
HETATM   17  H   UNK N   1      33.414  14.075  10.874  0.00  0.00     0.150 HD
ENDBRANCH  10  15
ENDBRANCH   1  10
TORSDOF 8
ENDMDL
MODEL 6
REMARK VINA RESULT:      -4.4     15.149     17.730
REMARK  8 active torsions:
REMARK  status: ('A' for Active; 'I' for Inactive)
REMARK    1  A    between atoms: N_9  and  C_2 
REMARK    2  A    between atoms: C_4  and  C_3 
REMARK    3  A    between atoms: C_5  and  C_3 
REMARK    4  A    between atoms: C_6  and  C_4 
REMARK    5  A    between atoms: C_7  and  C_5 
REMARK    6  A    between atoms: C_5  and  N_8 
REMARK    7  A    between atoms: O_11  and  C_6 
REMARK    8  A    between atoms: O_13  and  C_7 
ROOT
HETATM    1  C   UNK N   1      29.527  24.413  -3.608  0.00  0.00     0.043 C 
ENDROOT
BRANCH   1   2
HETATM    2  C   UNK N   1      28.323  24.274  -4.528  0.00  0.00     0.086 C 
BRANCH   2   3
HETATM    3  C   UNK N   1      27.027  24.283  -3.746  0.00  0.00     0.111 C 
HETATM    4  N   UNK N   1      25.926  24.695  -4.278  0.00  0.00    -0.375 N 
ATOM      5  HN  UNK N   1      25.078  24.678  -3.711  1.00  0.00     0.161 HD
BRANCH   4   6
HETATM    6  C   UNK N   1      25.829  25.180  -5.637  0.00  0.00     0.117 C 
HETATM    7  C   UNK N   1      25.089  26.507  -5.687  0.00  0.00     0.026 C 
ENDBRANCH   4   6
BRANCH   3   8
HETATM    8  O   UNK N   1      27.010  23.849  -2.469  0.00  0.00    -0.350 OA
HETATM    9  H   UNK N   1      26.231  23.486  -2.095  0.00  0.00     0.219 HD
ENDBRANCH   3   8
ENDBRANCH   2   3
ENDBRANCH   1   2
BRANCH   1  10
HETATM   10  C   UNK N   1      30.517  23.270  -3.788  0.00  0.00     0.173 C 
BRANCH  10  11
HETATM   11  C   UNK N   1      30.884  22.738  -2.433  0.00  0.00     0.163 C 
HETATM   12  O   UNK N   1      30.260  23.071  -1.436  0.00  0.00    -0.648 OA
BRANCH  11  13
HETATM   13  O   UNK N   1      31.912  21.875  -2.315  0.00  0.00    -0.775 OA
HETATM   14  H   UNK N   1      31.916  21.030  -2.720  0.00  0.00     0.167 HD
ENDBRANCH  11  13
ENDBRANCH  10  11
BRANCH  10  15
HETATM   15  N   UNK N   1      29.916  22.235  -4.618  0.00  0.00    -0.418 N 
HETATM   16  H   UNK N   1      30.244  21.270  -4.615  0.00  0.00     0.150 HD
HETATM   17  H   UNK N   1      29.137  22.486  -5.226  0.00  0.00     0.150 HD
ENDBRANCH  10  15
ENDBRANCH   1  10
TORSDOF 8
ENDMDL
MODEL 7
REMARK VINA RESULT:      -4.4      2.537      3.136
REMARK  8 active torsions:
REMARK  status: ('A' for Active; 'I' for Inactive)
REMARK    1  A    between atoms: N_9  and  C_2 
REMARK    2  A    between atoms: C_4  and  C_3 
REMARK    3  A    between atoms: C_5  and  C_3 
REMARK    4  A    between atoms: C_6  and  C_4 
REMARK    5  A    between atoms: C_7  and  C_5 
REMARK    6  A    between atoms: C_5  and  N_8 
REMARK    7  A    between atoms: O_11  and  C_6 
REMARK    8  A    between atoms: O_13  and  C_7 
ROOT
HETATM    1  C   UNK N   1      32.678  16.928   8.785  0.00  0.00     0.043 C 
ENDROOT
BRANCH   1   2
HETATM    2  C   UNK N   1      32.230  15.486   8.589  0.00  0.00     0.086 C 
BRANCH   2   3
HETATM    3  C   UNK N   1      32.788  14.583   9.667  0.00  0.00     0.111 C 
HETATM    4  N   UNK N   1      33.304  13.435   9.381  0.00  0.00    -0.375 N 
ATOM      5  HN  UNK N   1      33.669  12.865  10.143  1.00  0.00     0.161 HD
BRANCH   4   6
HETATM    6  C   UNK N   1      33.390  12.913   8.035  0.00  0.00     0.117 C 
HETATM    7  C   UNK N   1      34.810  13.023   7.502  0.00  0.00     0.026 C 
ENDBRANCH   4   6
BRANCH   3   8
HETATM    8  O   UNK N   1      32.757  14.978  10.957  0.00  0.00    -0.350 OA
HETATM    9  H   UNK N   1      32.889  14.364  11.652  0.00  0.00     0.219 HD
ENDBRANCH   3   8
ENDBRANCH   2   3
ENDBRANCH   1   2
BRANCH   1  10
HETATM   10  C   UNK N   1      34.195  17.056   8.806  0.00  0.00     0.173 C 
BRANCH  10  11
HETATM   11  C   UNK N   1      34.591  18.200   7.918  0.00  0.00     0.163 C 
HETATM   12  O   UNK N   1      35.134  19.193   8.378  0.00  0.00    -0.648 OA
BRANCH  11  13
HETATM   13  O   UNK N   1      34.349  18.127   6.594  0.00  0.00    -0.775 OA
HETATM   14  H   UNK N   1      34.167  18.880   6.068  0.00  0.00     0.167 HD
ENDBRANCH  11  13
ENDBRANCH  10  11
BRANCH  10  15
HETATM   15  N   UNK N   1      34.645  17.268  10.174  0.00  0.00    -0.418 N 
HETATM   16  H   UNK N   1      34.255  16.758  10.966  0.00  0.00     0.150 HD
HETATM   17  H   UNK N   1      35.379  17.955  10.348  0.00  0.00     0.150 HD
ENDBRANCH  10  15
ENDBRANCH   1  10
TORSDOF 8
ENDMDL
MODEL 8
REMARK VINA RESULT:      -4.4      2.595      5.463
REMARK  8 active torsions:
REMARK  status: ('A' for Active; 'I' for Inactive)
REMARK    1  A    between atoms: N_9  and  C_2 
REMARK    2  A    between atoms: C_4  and  C_3 
REMARK    3  A    between atoms: C_5  and  C_3 
REMARK    4  A    between atoms: C_6  and  C_4 
REMARK    5  A    between atoms: C_7  and  C_5 
REMARK    6  A    between atoms: C_5  and  N_8 
REMARK    7  A    between atoms: O_11  and  C_6 
REMARK    8  A    between atoms: O_13  and  C_7 
ROOT
HETATM    1  C   UNK N   1      35.537  13.419  10.738  0.00  0.00     0.043 C 
ENDROOT
BRANCH   1   2
HETATM    2  C   UNK N   1      35.145  14.436   9.675  0.00  0.00     0.086 C 
BRANCH   2   3
HETATM    3  C   UNK N   1      34.018  15.326  10.151  0.00  0.00     0.111 C 
HETATM    4  N   UNK N   1      33.783  16.467   9.595  0.00  0.00    -0.375 N 
ATOM      5  HN  UNK N   1      33.009  17.028   9.950  1.00  0.00     0.161 HD
BRANCH   4   6
HETATM    6  C   UNK N   1      34.559  16.992   8.493  0.00  0.00     0.117 C 
HETATM    7  C   UNK N   1      34.026  18.345   8.052  0.00  0.00     0.026 C 
ENDBRANCH   4   6
BRANCH   3   8
HETATM    8  O   UNK N   1      33.232  14.927  11.174  0.00  0.00    -0.350 OA
HETATM    9  H   UNK N   1      33.462  15.120  12.061  0.00  0.00     0.219 HD
ENDBRANCH   3   8
ENDBRANCH   2   3
ENDBRANCH   1   2
BRANCH   1  10
HETATM   10  C   UNK N   1      36.583  13.971  11.697  0.00  0.00     0.173 C 
BRANCH  10  11
HETATM   11  C   UNK N   1      36.060  13.843  13.099  0.00  0.00     0.163 C 
HETATM   12  O   UNK N   1      34.879  13.611  13.311  0.00  0.00    -0.648 OA
BRANCH  11  13
HETATM   13  O   UNK N   1      36.908  13.979  14.137  0.00  0.00    -0.775 OA
HETATM   14  H   UNK N   1      36.862  13.444  14.905  0.00  0.00     0.167 HD
ENDBRANCH  11  13
ENDBRANCH  10  11
BRANCH  10  15
HETATM   15  N   UNK N   1      37.830  13.237  11.528  0.00  0.00    -0.418 N 
HETATM   16  H   UNK N   1      38.688  13.494  12.015  0.00  0.00     0.150 HD
HETATM   17  H   UNK N   1      37.845  12.435  10.898  0.00  0.00     0.150 HD
ENDBRANCH  10  15
ENDBRANCH   1  10
TORSDOF 8
ENDMDL
MODEL 9
REMARK VINA RESULT:      -4.4      2.522      5.148
REMARK  8 active torsions:
REMARK  status: ('A' for Active; 'I' for Inactive)
REMARK    1  A    between atoms: N_9  and  C_2 
REMARK    2  A    between atoms: C_4  and  C_3 
REMARK    3  A    between atoms: C_5  and  C_3 
REMARK    4  A    between atoms: C_6  and  C_4 
REMARK    5  A    between atoms: C_7  and  C_5 
REMARK    6  A    between atoms: C_5  and  N_8 
REMARK    7  A    between atoms: O_11  and  C_6 
REMARK    8  A    between atoms: O_13  and  C_7 
ROOT
HETATM    1  C   UNK N   1      34.769  15.258   8.496  0.00  0.00     0.043 C 
ENDROOT
BRANCH   1   2
HETATM    2  C   UNK N   1      33.333  15.532   8.073  0.00  0.00     0.086 C 
BRANCH   2   3
HETATM    3  C   UNK N   1      33.067  17.017   7.950  0.00  0.00     0.111 C 
HETATM    4  N   UNK N   1      33.194  17.630   6.821  0.00  0.00    -0.375 N 
ATOM      5  HN  UNK N   1      32.999  18.630   6.789  1.00  0.00     0.161 HD
BRANCH   4   6
HETATM    6  C   UNK N   1      33.597  16.973   5.597  0.00  0.00     0.117 C 
HETATM    7  C   UNK N   1      32.844  17.539   4.405  0.00  0.00     0.026 C 
ENDBRANCH   4   6
BRANCH   3   8
HETATM    8  O   UNK N   1      32.683  17.723   9.034  0.00  0.00    -0.350 OA
HETATM    9  H   UNK N   1      31.821  17.631   9.387  0.00  0.00     0.219 HD
ENDBRANCH   3   8
ENDBRANCH   2   3
ENDBRANCH   1   2
BRANCH   1  10
HETATM   10  C   UNK N   1      34.904  15.133  10.008  0.00  0.00     0.173 C 
BRANCH  10  11
HETATM   11  C   UNK N   1      35.759  16.262  10.507  0.00  0.00     0.163 C 
HETATM   12  O   UNK N   1      35.355  17.415  10.481  0.00  0.00    -0.648 OA
BRANCH  11  13
HETATM   13  O   UNK N   1      36.986  15.998  10.997  0.00  0.00    -0.775 OA
HETATM   14  H   UNK N   1      37.213  15.176  11.385  0.00  0.00     0.167 HD
ENDBRANCH  11  13
ENDBRANCH  10  11
BRANCH  10  15
HETATM   15  N   UNK N   1      33.581  15.163  10.616  0.00  0.00    -0.418 N 
HETATM   16  H   UNK N   1      33.437  15.340  11.610  0.00  0.00     0.150 HD
HETATM   17  H   UNK N   1      32.765  15.001  10.025  0.00  0.00     0.150 HD
ENDBRANCH  10  15
ENDBRANCH   1  10
TORSDOF 8
ENDMDL
