REMARK  6 active torsions:
REMARK  status: ('A' for Active; 'I' for Inactive)
REMARK    1  A    between atoms: C_2  and  N_3 
REMARK    2  A    between atoms: C_2  and  C_20 
REMARK    3  A    between atoms: N_6  and  C_9 
REMARK    4  A    between atoms: C_13  and  C_16 
REMARK       I    between atoms: C_20  and  N_22 
REMARK    5  A    between atoms: C_23  and  N_22 
REMARK    6  A    between atoms: C_26  and  C_33 
REMARK       I    between atoms: C_33  and  N_35 
ROOT
HETATM    1  C   UNK N   1      -3.241  -1.890   2.080  0.00  0.00     0.059 C 
HETATM    2  C   UNK N   1      -2.119  -2.280   1.118  0.00  0.00     0.232 C 
HETATM    3  C   UNK N   1      -1.041  -2.858   2.025  0.00  0.00     0.059 C 
ENDROOT
BRANCH   2   4
HETATM    4  N   UNK N   1      -2.672  -3.305   0.208  0.00  0.00     0.110 N 
HETATM    5  C   UNK N   1      -1.668  -4.098  -0.514  0.00  0.00     0.294 C 
HETATM    6  C   UNK N   1      -2.353  -5.310  -1.170  0.00  0.00     0.154 C 
HETATM    7  N   UNK N   1      -3.771  -5.041  -1.328  0.00  0.00    -0.364 N 
HETATM    8  C   UNK N   1      -4.161  -3.725  -1.763  0.00  0.00     0.154 C 
HETATM    9  C   UNK N   1      -3.635  -2.708  -0.750  0.00  0.00     0.294 C 
BRANCH   7  10
HETATM   10  C   UNK N   1      -4.749  -5.938  -0.813  0.00  0.00     0.103 A 
HETATM   11  N   UNK N   1      -4.373  -7.117  -0.246  0.00  0.00    -0.352 N 
HETATM   12  C   UNK N   1      -5.287  -7.987   0.266  0.00  0.00     0.106 A 
ATOM     13  HN  UNK N   1      -3.382  -7.354  -0.202  1.00  0.00     0.166 HD
HETATM   14  C   UNK N   1      -6.655  -7.684   0.216  0.00  0.00     0.063 A 
HETATM   15  C   UNK N   1      -7.061  -6.477  -0.354  0.00  0.00     0.021 A 
HETATM   16  C   UNK N   1      -6.111  -5.599  -0.866  0.00  0.00     0.049 A 
BRANCH  14  17
HETATM   17  C   UNK N   1      -7.683  -8.641   0.741  0.00  0.00     0.418 C 
HETATM   18  F   UNK N   1      -8.509  -9.031  -0.298  0.00  0.00    -0.166 F 
HETATM   19  F   UNK N   1      -7.086  -9.766   1.283  0.00  0.00    -0.166 F 
HETATM   20  F   UNK N   1      -8.443  -8.022   1.717  0.00  0.00    -0.166 F 
ENDBRANCH  14  17
ENDBRANCH   7  10
ENDBRANCH   2   4
BRANCH   2  21
HETATM   21  C   UNK N   1      -1.666  -1.036   0.341  0.00  0.00     0.256 C 
HETATM   22  O   UNK N   1      -2.405  -0.063   0.322  0.00  0.00    -0.271 OA
HETATM   23  N   UNK N   1      -0.534  -0.972  -0.405  0.00  0.00    -0.353 N 
HETATM   24  H   UNK N   1      -0.508  -0.250  -1.073  0.00  0.00     0.163 HD
BRANCH  23  25
HETATM   25  C   UNK N   1       0.645  -1.818  -0.358  0.00  0.00     0.092 C 
HETATM   26  C   UNK N   1       1.579  -1.337  -1.497  0.00  0.00     0.010 C 
HETATM   27  C   UNK N   1       2.959  -2.014  -1.424  0.00  0.00     0.011 C 
HETATM   28  C   UNK N   1       1.780   0.183  -1.364  0.00  0.00     0.026 C 
HETATM   29  C   UNK N   1       3.636  -1.680  -0.087  0.00  0.00    -0.013 C 
HETATM   30  C   UNK N   1       2.749  -2.234   1.035  0.00  0.00     0.011 C 
HETATM   31  C   UNK N   1       3.787  -0.145   0.067  0.00  0.00     0.024 C 
HETATM   32  C   UNK N   1       1.371  -1.554   0.988  0.00  0.00     0.010 C 
HETATM   33  C   UNK N   1       1.560  -0.043   1.163  0.00  0.00     0.026 C 
HETATM   34  C   UNK N   1       2.400   0.526   0.006  0.00  0.00     0.042 C 
BRANCH  34  35
HETATM   35  C   UNK N   1       2.420   2.026   0.152  0.00  0.00     0.224 C 
HETATM   36  O   UNK N   1       1.368   2.650   0.114  0.00  0.00    -0.273 OA
HETATM   37  N   UNK N   1       3.577   2.692   0.332  0.00  0.00    -0.369 N 
HETATM   38  H   UNK N   1       4.421   2.202   0.463  0.00  0.00     0.159 HD
HETATM   39  H   UNK N   1       3.579   3.676   0.332  0.00  0.00     0.159 HD
ENDBRANCH  34  35
ENDBRANCH  23  25
ENDBRANCH   2  21
TORSDOF 6
