REMARK  2 active torsions:
REMARK  status: ('A' for Active; 'I' for Inactive)
REMARK    1  A    between atoms: C_5  and  C_10 
REMARK    2  A    between atoms: C_6  and  O_9 
REMARK       I    between atoms: C_10  and  N_12 
ROOT
HETATM    1  C   UNK N   1       2.455  -0.231   0.004  0.00  0.00     0.151 A 
HETATM    2  C   UNK N   1       1.342  -1.069  -0.000  0.00  0.00     0.204 A 
HETATM    3  N   UNK N   1       0.097  -0.530  -0.002  0.00  0.00    -0.324 N 
ATOM      4  HN  UNK N   1      -0.713  -1.150  -0.004  1.00  0.00     0.168 HD
HETATM    5  C   UNK N   1      -0.099   0.817  -0.001  0.00  0.00     0.154 A 
HETATM    6  C   UNK N   1       1.033   1.665   0.002  0.00  0.00     0.173 A 
HETATM    7  N   UNK N   1       2.277   1.116   0.005  0.00  0.00    -0.341 N 
ATOM      8  HN  UNK N   1       3.094   1.728   0.008  1.00  0.00     0.167 HD
HETATM    9  F   UNK N   1       1.497  -2.414  -0.004  0.00  0.00    -0.185 F 
ENDROOT
BRANCH   5  10
HETATM   10  C   UNK N   1      -1.493   1.325  -0.002  0.00  0.00     0.270 C 
HETATM   11  O   UNK N   1      -2.421   0.531   0.003  0.00  0.00    -0.266 OA
HETATM   12  N   UNK N   1      -1.759   2.647  -0.007  0.00  0.00    -0.365 N 
HETATM   13  H   UNK N   1      -1.020   3.297  -0.011  0.00  0.00     0.159 HD
HETATM   14  H   UNK N   1      -2.691   2.961  -0.007  0.00  0.00     0.159 HD
ENDBRANCH   5  10
BRANCH   6  15
HETATM   15  O   UNK N   1       0.905   3.004   0.002  0.00  0.00    -0.344 OA
HETATM   16  H   UNK N   1       1.669   3.547   0.002  0.00  0.00     0.219 HD
ENDBRANCH   6  15
TORSDOF 2
