REMARK  13 active torsions:
REMARK  status: ('A' for Active; 'I' for Inactive)
REMARK    1  A    between atoms: C_2  and  C_4 
REMARK    2  A    between atoms: C_4  and  C_5 
REMARK    3  A    between atoms: C_4  and  C_24 
REMARK    4  A    between atoms: C_5  and  C_6 
REMARK    5  A    between atoms: C_6  and  C_7 
REMARK    6  A    between atoms: C_7  and  N_8 
REMARK    7  A    between atoms: N_8  and  C_10 
REMARK    8  A    between atoms: C_10  and  C_11 
REMARK    9  A    between atoms: C_11  and  C_12 
REMARK   10  A    between atoms: C_16  and  C_18 
REMARK   11  A    between atoms: C_18  and  O_20 
REMARK   12  A    between atoms: C_27  and  O_32 
REMARK   13  A    between atoms: C_28  and  O_30 
ROOT
HETATM    1  C   UNK N   1      -1.146  -4.202  -0.715  0.00  0.00     0.079 C 
HETATM    2  C   UNK N   1      -1.646  -5.295  -1.579  0.00  0.00     0.074 C 
HETATM    3  N   UNK N   1      -2.049  -6.138  -2.262  0.00  0.00    -0.196 NA
ENDROOT
BRANCH   1   4
HETATM    4  C   UNK N   1      -0.472  -3.190  -1.707  0.00  0.00     0.004 C 
HETATM    5  C   UNK N   1       0.104  -1.922  -1.094  0.00  0.00     0.011 C 
HETATM    6  C   UNK N   1       0.584  -3.798  -2.619  0.00  0.00     0.011 C 
ENDBRANCH   1   4
BRANCH   1   7
HETATM    7  C   UNK N   1      -0.168  -4.897   0.255  0.00  0.00     0.032 C 
BRANCH   7   8
HETATM    8  C   UNK N   1       0.604  -3.992   1.194  0.00  0.00     0.032 C 
BRANCH   8   9
HETATM    9  C   UNK N   1       2.058  -3.833   0.746  0.00  0.00     0.272 C 
BRANCH   9  10
HETATM   10  N   UNK N   1       2.388  -2.418   0.576  0.00  0.00     0.084 N 
HETATM   11  C   UNK N   1       2.177  -1.675   1.815  0.00  0.00     0.309 C 
BRANCH  10  12
HETATM   12  C   UNK N   1       3.765  -2.259   0.108  0.00  0.00     0.276 C 
BRANCH  12  13
HETATM   13  C   UNK N   1       4.811  -2.597   1.172  0.00  0.00     0.068 C 
BRANCH  13  14
HETATM   14  C   UNK N   1       5.768  -3.594   0.632  0.00  0.00    -0.056 A 
HETATM   15  C   UNK N   1       7.053  -3.189   0.264  0.00  0.00     0.007 A 
HETATM   16  C   UNK N   1       7.955  -4.117  -0.258  0.00  0.00     0.002 A 
HETATM   17  C   UNK N   1       7.577  -5.455  -0.402  0.00  0.00     0.017 A 
HETATM   18  C   UNK N   1       6.292  -5.872  -0.026  0.00  0.00     0.040 A 
HETATM   19  C   UNK N   1       5.387  -4.933   0.489  0.00  0.00     0.024 A 
BRANCH  18  20
HETATM   20  C   UNK N   1       5.908  -7.290  -0.161  0.00  0.00     0.292 C 
HETATM   21  O   UNK N   1       4.787  -7.655   0.173  0.00  0.00    -0.259 OA
BRANCH  20  22
HETATM   22  O   UNK N   1       6.807  -8.183  -0.644  0.00  0.00    -0.323 OA
HETATM   23  C   UNK N   1       6.523  -9.523  -0.769  0.00  0.00     0.213 C 
ENDBRANCH  20  22
ENDBRANCH  18  20
ENDBRANCH  13  14
ENDBRANCH  12  13
ENDBRANCH  10  12
ENDBRANCH   9  10
ENDBRANCH   8   9
ENDBRANCH   7   8
ENDBRANCH   1   7
BRANCH   1  24
HETATM   24  C   UNK N   1      -2.381  -3.543  -0.049  0.00  0.00    -0.032 A 
HETATM   25  C   UNK N   1      -3.586  -4.262   0.071  0.00  0.00     0.012 A 
HETATM   26  C   UNK N   1      -4.795  -3.611   0.309  0.00  0.00     0.040 A 
HETATM   27  C   UNK N   1      -4.852  -2.220   0.406  0.00  0.00     0.101 A 
HETATM   28  C   UNK N   1      -3.647  -1.477   0.376  0.00  0.00     0.102 A 
HETATM   29  C   UNK N   1      -2.436  -2.150   0.138  0.00  0.00     0.048 A 
BRANCH  27  30
HETATM   30  O   UNK N   1      -6.077  -1.641   0.496  0.00  0.00    -0.353 OA
HETATM   31  C   UNK N   1      -6.343  -0.335   0.148  0.00  0.00     0.210 C 
ENDBRANCH  27  30
BRANCH  28  32
HETATM   32  O   UNK N   1      -3.668  -0.130   0.541  0.00  0.00    -0.353 OA
HETATM   33  C   UNK N   1      -2.533   0.649   0.579  0.00  0.00     0.210 C 
ENDBRANCH  28  32
ENDBRANCH   1  24
TORSDOF 13
