MODEL 1
REMARK VINA RESULT:      -7.4      0.000      0.000
REMARK  18 active torsions:
REMARK  status: ('A' for Active; 'I' for Inactive)
REMARK    1  A    between atoms: C_4  and  O_62 
REMARK    2  A    between atoms: C_8  and  O_57 
REMARK    3  A    between atoms: C_11  and  O_53 
REMARK    4  A    between atoms: C_13  and  O_42 
REMARK    5  A    between atoms: C_19  and  O_20 
REMARK    6  A    between atoms: O_20  and  C_21 
REMARK    7  A    between atoms: C_21  and  C_23 
REMARK    8  A    between atoms: C_23  and  C_24 
REMARK    9  A    between atoms: C_23  and  O_40 
REMARK   10  A    between atoms: C_24  and  C_25 
REMARK   11  A    between atoms: C_24  and  N_31 
REMARK       I    between atoms: N_31  and  C_32 
REMARK   12  A    between atoms: C_32  and  C_34 
REMARK   13  A    between atoms: O_42  and  C_43 
REMARK   14  A    between atoms: C_43  and  C_45 
REMARK   15  A    between atoms: O_53  and  C_54 
REMARK   16  A    between atoms: O_57  and  C_58 
REMARK   17  A    between atoms: C_58  and  S_59 
REMARK   18  A    between atoms: O_62  and  C_63 
ROOT
HETATM    1  C   UNK N   1      34.575  15.813  10.924  0.00  0.00     0.046 C 
HETATM    2  C   UNK N   1      35.766  15.001  10.514  0.00  0.00    -0.048 C 
HETATM    3  C   UNK N   1      35.962  14.612   9.210  0.00  0.00    -0.028 C 
HETATM    4  C   UNK N   1      34.888  14.783   8.163  0.00  0.00     0.232 C 
HETATM    5  C   UNK N   1      34.838  13.610   7.130  0.00  0.00     0.171 C 
HETATM    6  O   UNK N   1      35.099  13.938   5.985  0.00  0.00    -0.294 OA
HETATM    7  C   UNK N   1      34.503  12.066   7.399  0.00  0.00     0.055 C 
HETATM    8  C   UNK N   1      33.956  11.536   6.029  0.00  0.00     0.141 C 
HETATM    9  C   UNK N   1      33.462  10.106   6.092  0.00  0.00     0.068 C 
HETATM   10  C   UNK N   1      34.603   9.133   6.317  0.00  0.00     0.161 A 
HETATM   11  C   UNK N   1      35.565   9.493   7.416  0.00  0.00     0.125 A 
HETATM   12  C   UNK N   1      35.607  10.965   7.982  0.00  0.00     0.076 C 
HETATM   13  C   UNK N   1      36.692  11.144   9.179  0.00  0.00     0.176 C 
HETATM   14  C   UNK N   1      36.514  12.453   9.916  0.00  0.00     0.098 C 
HETATM   15  C   UNK N   1      37.060  13.611   8.980  0.00  0.00     0.013 C 
HETATM   16  C   UNK N   1      37.428  13.250   7.532  0.00  0.00     0.023 C 
HETATM   17  C   UNK N   1      38.433  14.189   9.375  0.00  0.00     0.023 C 
HETATM   18  C   UNK N   1      37.035  12.824  11.323  0.00  0.00     0.078 C 
HETATM   19  C   UNK N   1      36.707  14.368  11.568  0.00  0.00     0.164 C 
HETATM   20  O   UNK N   1      35.126  12.453  10.149  0.00  0.00    -0.386 OA
HETATM   21  C   UNK N   1      36.588   9.344   6.308  0.00  0.00     0.210 A 
HETATM   22  O   UNK N   1      35.599   9.129   5.328  0.00  0.00    -0.380 OA
HETATM   23  C   UNK N   1      33.269  12.036   8.296  0.00  0.00     0.027 C 
HETATM   24  H   UNK N   1      34.186  12.442  10.386  0.00  0.00     0.210 HD
ENDROOT
BRANCH  13  25
HETATM   25  O   UNK N   1      36.853  10.058  10.030  0.00  0.00    -0.308 OA
BRANCH  25  26
HETATM   26  C   UNK N   1      37.952   9.270  10.198  0.00  0.00     0.293 C 
HETATM   27  O   UNK N   1      38.597   8.878   9.237  0.00  0.00    -0.259 OA
BRANCH  26  28
HETATM   28  C   UNK N   1      38.409   8.970  11.571  0.00  0.00     0.039 A 
HETATM   29  C   UNK N   1      39.071   7.768  11.864  0.00  0.00     0.017 A 
HETATM   30  C   UNK N   1      39.518   7.508  13.164  0.00  0.00     0.001 A 
HETATM   31  C   UNK N   1      39.310   8.449  14.177  0.00  0.00     0.000 A 
HETATM   32  C   UNK N   1      38.657   9.651  13.892  0.00  0.00     0.001 A 
HETATM   33  C   UNK N   1      38.210   9.912  12.594  0.00  0.00     0.017 A 
ENDBRANCH  26  28
ENDBRANCH  25  26
ENDBRANCH  13  25
BRANCH  19  34
HETATM   34  O   UNK N   1      36.436  14.652  12.885  0.00  0.00    -0.309 OA
BRANCH  34  35
HETATM   35  C   UNK N   1      35.678  13.866  13.688  0.00  0.00     0.290 C 
HETATM   36  O   UNK N   1      34.601  13.425  13.313  0.00  0.00    -0.262 OA
BRANCH  35  37
HETATM   37  C   UNK N   1      36.251  13.441  14.995  0.00  0.00     0.244 C 
BRANCH  37  38
HETATM   38  C   UNK N   1      35.289  12.390  15.586  0.00  0.00     0.156 C 
BRANCH  38  39
HETATM   39  C   UNK N   1      35.182  12.375  17.093  0.00  0.00    -0.033 A 
HETATM   40  C   UNK N   1      35.096  13.571  17.822  0.00  0.00     0.009 A 
HETATM   41  C   UNK N   1      35.168  13.546  19.212  0.00  0.00     0.001 A 
HETATM   42  C   UNK N   1      35.313  12.331  19.885  0.00  0.00     0.000 A 
HETATM   43  C   UNK N   1      35.371  11.136  19.169  0.00  0.00     0.001 A 
HETATM   44  C   UNK N   1      35.322  11.159  17.774  0.00  0.00     0.009 A 
ENDBRANCH  38  39
BRANCH  38  45
HETATM   45  N   UNK N   1      35.611  11.062  15.107  0.00  0.00    -0.345 N 
HETATM   46  C   UNK N   1      34.711  10.236  14.515  0.00  0.00     0.252 C 
HETATM   47  O   UNK N   1      33.559  10.609  14.317  0.00  0.00    -0.268 OA
HETATM   48  H   UNK N   1      36.535  10.739  15.217  0.00  0.00     0.163 HD
BRANCH  46  49
HETATM   49  C   UNK N   1      35.112   8.886  14.101  0.00  0.00     0.032 A 
HETATM   50  C   UNK N   1      34.940   8.477  12.769  0.00  0.00     0.017 A 
HETATM   51  C   UNK N   1      35.348   7.203  12.370  0.00  0.00     0.001 A 
HETATM   52  C   UNK N   1      35.921   6.330  13.298  0.00  0.00     0.000 A 
HETATM   53  C   UNK N   1      36.088   6.731  14.627  0.00  0.00     0.001 A 
HETATM   54  C   UNK N   1      35.688   8.007  15.026  0.00  0.00     0.017 A 
ENDBRANCH  46  49
ENDBRANCH  38  45
ENDBRANCH  37  38
BRANCH  37  55
HETATM   55  O   UNK N   1      37.500  12.862  14.763  0.00  0.00    -0.383 OA
HETATM   56  H   UNK N   1      37.680  12.415  13.922  0.00  0.00     0.210 HD
ENDBRANCH  37  55
ENDBRANCH  35  37
ENDBRANCH  34  35
ENDBRANCH  19  34
BRANCH  11  57
HETATM   57  O   UNK N   1      35.473   8.468   8.351  0.00  0.00    -0.305 OA
BRANCH  57  58
HETATM   58  C   UNK N   1      34.347   7.979   8.943  0.00  0.00     0.255 C 
HETATM   59  O   UNK N   1      33.581   8.708   9.553  0.00  0.00    -0.266 OA
HETATM   60  C   UNK N   1      34.041   6.524   8.834  0.00  0.00     0.126 C 
ENDBRANCH  57  58
ENDBRANCH  11  57
BRANCH   4  61
HETATM   61  O   UNK N   1      35.115  16.022   7.576  0.00  0.00    -0.304 OA
BRANCH  61  62
HETATM   62  C   UNK N   1      34.180  16.967   7.305  0.00  0.00     0.255 C 
HETATM   63  O   UNK N   1      34.441  17.939   6.612  0.00  0.00    -0.266 OA
HETATM   64  C   UNK N   1      32.812  16.820   7.878  0.00  0.00     0.126 C 
ENDBRANCH  61  62
ENDBRANCH   4  61
BRANCH   8  65
HETATM   65  O   UNK N   1      34.842  11.682   4.944  0.00  0.00    -0.375 OA
BRANCH  65  66
HETATM   66  C   UNK N   1      34.018  11.711   3.809  0.00  0.00     0.241 C 
BRANCH  66  67
HETATM   67  S   UNK N   1      34.669  12.863   2.559  0.00  0.00    -0.148 SA
HETATM   68  C   UNK N   1      33.294  14.019   2.793  0.00  0.00     0.092 C 
ENDBRANCH  66  67
ENDBRANCH  65  66
ENDBRANCH   8  65
TORSDOF 18
ENDMDL
MODEL 2
REMARK VINA RESULT:      -7.3      1.369      2.070
REMARK  18 active torsions:
REMARK  status: ('A' for Active; 'I' for Inactive)
REMARK    1  A    between atoms: C_4  and  O_62 
REMARK    2  A    between atoms: C_8  and  O_57 
REMARK    3  A    between atoms: C_11  and  O_53 
REMARK    4  A    between atoms: C_13  and  O_42 
REMARK    5  A    between atoms: C_19  and  O_20 
REMARK    6  A    between atoms: O_20  and  C_21 
REMARK    7  A    between atoms: C_21  and  C_23 
REMARK    8  A    between atoms: C_23  and  C_24 
REMARK    9  A    between atoms: C_23  and  O_40 
REMARK   10  A    between atoms: C_24  and  C_25 
REMARK   11  A    between atoms: C_24  and  N_31 
REMARK       I    between atoms: N_31  and  C_32 
REMARK   12  A    between atoms: C_32  and  C_34 
REMARK   13  A    between atoms: O_42  and  C_43 
REMARK   14  A    between atoms: C_43  and  C_45 
REMARK   15  A    between atoms: O_53  and  C_54 
REMARK   16  A    between atoms: O_57  and  C_58 
REMARK   17  A    between atoms: C_58  and  S_59 
REMARK   18  A    between atoms: O_62  and  C_63 
ROOT
HETATM    1  C   UNK N   1      34.893  16.456  11.341  0.00  0.00     0.046 C 
HETATM    2  C   UNK N   1      35.811  15.435  10.742  0.00  0.00    -0.048 C 
HETATM    3  C   UNK N   1      35.833  15.185   9.391  0.00  0.00    -0.028 C 
HETATM    4  C   UNK N   1      34.788  15.755   8.463  0.00  0.00     0.232 C 
HETATM    5  C   UNK N   1      34.385  14.779   7.311  0.00  0.00     0.171 C 
HETATM    6  O   UNK N   1      34.661  15.180   6.193  0.00  0.00    -0.294 OA
HETATM    7  C   UNK N   1      33.678  13.344   7.427  0.00  0.00     0.055 C 
HETATM    8  C   UNK N   1      32.943  13.154   6.056  0.00  0.00     0.141 C 
HETATM    9  C   UNK N   1      32.102  11.895   5.995  0.00  0.00     0.068 C 
HETATM   10  C   UNK N   1      32.964  10.648   6.012  0.00  0.00     0.161 A 
HETATM   11  C   UNK N   1      34.041  10.610   7.061  0.00  0.00     0.125 A 
HETATM   12  C   UNK N   1      34.490  11.936   7.786  0.00  0.00     0.076 C 
HETATM   13  C   UNK N   1      35.644  11.680   8.901  0.00  0.00     0.176 C 
HETATM   14  C   UNK N   1      35.847  12.883   9.796  0.00  0.00     0.098 C 
HETATM   15  C   UNK N   1      36.624  13.982   8.957  0.00  0.00     0.013 C 
HETATM   16  C   UNK N   1      36.812  13.736   7.451  0.00  0.00     0.023 C 
HETATM   17  C   UNK N   1      38.118  14.143   9.300  0.00  0.00     0.023 C 
HETATM   18  C   UNK N   1      36.518  12.923  11.188  0.00  0.00     0.078 C 
HETATM   19  C   UNK N   1      36.611  14.454  11.635  0.00  0.00     0.164 C 
HETATM   20  O   UNK N   1      34.520  13.198  10.142  0.00  0.00    -0.386 OA
HETATM   21  C   UNK N   1      34.933  10.358   5.861  0.00  0.00     0.210 A 
HETATM   22  O   UNK N   1      33.874  10.527   4.949  0.00  0.00    -0.380 OA
HETATM   23  C   UNK N   1      32.526  13.504   8.415  0.00  0.00     0.027 C 
HETATM   24  H   UNK N   1      33.622  13.389  10.454  0.00  0.00     0.210 HD
ENDROOT
BRANCH  13  25
HETATM   25  O   UNK N   1      35.564  10.485   9.606  0.00  0.00    -0.308 OA
BRANCH  25  26
HETATM   26  C   UNK N   1      36.493   9.493   9.696  0.00  0.00     0.293 C 
HETATM   27  O   UNK N   1      37.670   9.708   9.446  0.00  0.00    -0.259 OA
BRANCH  26  28
HETATM   28  C   UNK N   1      36.070   8.166  10.192  0.00  0.00     0.039 A 
HETATM   29  C   UNK N   1      36.788   7.008   9.855  0.00  0.00     0.017 A 
HETATM   30  C   UNK N   1      36.388   5.762  10.350  0.00  0.00     0.001 A 
HETATM   31  C   UNK N   1      35.273   5.667  11.188  0.00  0.00     0.000 A 
HETATM   32  C   UNK N   1      34.556   6.815  11.533  0.00  0.00     0.001 A 
HETATM   33  C   UNK N   1      34.954   8.061  11.039  0.00  0.00     0.017 A 
ENDBRANCH  26  28
ENDBRANCH  25  26
ENDBRANCH  13  25
BRANCH  19  34
HETATM   34  O   UNK N   1      36.490  14.620  12.994  0.00  0.00    -0.309 OA
BRANCH  34  35
HETATM   35  C   UNK N   1      35.745  13.816  13.790  0.00  0.00     0.290 C 
HETATM   36  O   UNK N   1      34.769  13.221  13.358  0.00  0.00    -0.262 OA
BRANCH  35  37
HETATM   37  C   UNK N   1      36.223  13.568  15.178  0.00  0.00     0.244 C 
BRANCH  37  38
HETATM   38  C   UNK N   1      35.695  12.180  15.594  0.00  0.00     0.156 C 
BRANCH  38  39
HETATM   39  C   UNK N   1      35.478  11.978  17.075  0.00  0.00    -0.033 A 
HETATM   40  C   UNK N   1      35.136  13.054  17.908  0.00  0.00     0.009 A 
HETATM   41  C   UNK N   1      35.105  12.885  19.289  0.00  0.00     0.001 A 
HETATM   42  C   UNK N   1      35.402  11.641  19.850  0.00  0.00     0.000 A 
HETATM   43  C   UNK N   1      35.716  10.559  19.028  0.00  0.00     0.001 A 
HETATM   44  C   UNK N   1      35.770  10.731  17.644  0.00  0.00     0.009 A 
ENDBRANCH  38  39
BRANCH  38  45
HETATM   45  N   UNK N   1      36.543  11.125  15.077  0.00  0.00    -0.345 N 
HETATM   46  C   UNK N   1      36.085  10.089  14.328  0.00  0.00     0.252 C 
HETATM   47  O   UNK N   1      34.900  10.024  14.013  0.00  0.00    -0.268 OA
HETATM   48  H   UNK N   1      37.505  11.160  15.281  0.00  0.00     0.163 HD
BRANCH  46  49
HETATM   49  C   UNK N   1      37.007   9.038  13.885  0.00  0.00     0.032 A 
HETATM   50  C   UNK N   1      36.799   7.707  14.280  0.00  0.00     0.017 A 
HETATM   51  C   UNK N   1      37.661   6.702  13.834  0.00  0.00     0.001 A 
HETATM   52  C   UNK N   1      38.735   7.022  13.000  0.00  0.00     0.000 A 
HETATM   53  C   UNK N   1      38.950   8.347  12.611  0.00  0.00     0.001 A 
HETATM   54  C   UNK N   1      38.085   9.351  13.049  0.00  0.00     0.017 A 
ENDBRANCH  46  49
ENDBRANCH  38  45
ENDBRANCH  37  38
BRANCH  37  55
HETATM   55  O   UNK N   1      37.619  13.561  15.172  0.00  0.00    -0.383 OA
HETATM   56  H   UNK N   1      38.100  13.513  14.332  0.00  0.00     0.210 HD
ENDBRANCH  37  55
ENDBRANCH  35  37
ENDBRANCH  34  35
ENDBRANCH  19  34
BRANCH  11  57
HETATM   57  O   UNK N   1      33.737   9.526   7.876  0.00  0.00    -0.305 OA
BRANCH  57  58
HETATM   58  C   UNK N   1      32.550   9.250   8.487  0.00  0.00     0.255 C 
HETATM   59  O   UNK N   1      31.989  10.077   9.187  0.00  0.00    -0.266 OA
HETATM   60  C   UNK N   1      31.923   7.912   8.288  0.00  0.00     0.126 C 
ENDBRANCH  57  58
ENDBRANCH  11  57
BRANCH   4  61
HETATM   61  O   UNK N   1      35.295  16.964   8.006  0.00  0.00    -0.304 OA
BRANCH  61  62
HETATM   62  C   UNK N   1      34.721  18.186   8.155  0.00  0.00     0.255 C 
HETATM   63  O   UNK N   1      35.389  19.171   8.431  0.00  0.00    -0.266 OA
HETATM   64  C   UNK N   1      33.247  18.320   7.991  0.00  0.00     0.126 C 
ENDBRANCH  61  62
ENDBRANCH   4  61
BRANCH   8  65
HETATM   65  O   UNK N   1      33.780  13.216   4.925  0.00  0.00    -0.375 OA
BRANCH  65  66
HETATM   66  C   UNK N   1      32.947  13.657   3.886  0.00  0.00     0.241 C 
BRANCH  66  67
HETATM   67  S   UNK N   1      33.890  14.600   2.647  0.00  0.00    -0.148 SA
HETATM   68  C   UNK N   1      33.044  16.147   3.064  0.00  0.00     0.092 C 
ENDBRANCH  66  67
ENDBRANCH  65  66
ENDBRANCH   8  65
TORSDOF 18
ENDMDL
MODEL 3
REMARK VINA RESULT:      -7.1      8.315     13.176
REMARK  18 active torsions:
REMARK  status: ('A' for Active; 'I' for Inactive)
REMARK    1  A    between atoms: C_4  and  O_62 
REMARK    2  A    between atoms: C_8  and  O_57 
REMARK    3  A    between atoms: C_11  and  O_53 
REMARK    4  A    between atoms: C_13  and  O_42 
REMARK    5  A    between atoms: C_19  and  O_20 
REMARK    6  A    between atoms: O_20  and  C_21 
REMARK    7  A    between atoms: C_21  and  C_23 
REMARK    8  A    between atoms: C_23  and  C_24 
REMARK    9  A    between atoms: C_23  and  O_40 
REMARK   10  A    between atoms: C_24  and  C_25 
REMARK   11  A    between atoms: C_24  and  N_31 
REMARK       I    between atoms: N_31  and  C_32 
REMARK   12  A    between atoms: C_32  and  C_34 
REMARK   13  A    between atoms: O_42  and  C_43 
REMARK   14  A    between atoms: C_43  and  C_45 
REMARK   15  A    between atoms: O_53  and  C_54 
REMARK   16  A    between atoms: O_57  and  C_58 
REMARK   17  A    between atoms: C_58  and  S_59 
REMARK   18  A    between atoms: O_62  and  C_63 
ROOT
HETATM    1  C   UNK N   1      26.197  11.409   4.132  0.00  0.00     0.046 C 
HETATM    2  C   UNK N   1      26.666  12.799   3.827  0.00  0.00    -0.048 C 
HETATM    3  C   UNK N   1      27.618  13.047   2.867  0.00  0.00    -0.028 C 
HETATM    4  C   UNK N   1      28.407  11.930   2.227  0.00  0.00     0.232 C 
HETATM    5  C   UNK N   1      29.894  12.311   1.934  0.00  0.00     0.171 C 
HETATM    6  O   UNK N   1      30.187  12.323   0.750  0.00  0.00    -0.294 OA
HETATM    7  C   UNK N   1      31.047  12.690   2.983  0.00  0.00     0.055 C 
HETATM    8  C   UNK N   1      32.383  12.323   2.251  0.00  0.00     0.141 C 
HETATM    9  C   UNK N   1      33.611  12.495   3.121  0.00  0.00     0.068 C 
HETATM   10  C   UNK N   1      33.871  13.955   3.435  0.00  0.00     0.161 A 
HETATM   11  C   UNK N   1      32.680  14.748   3.901  0.00  0.00     0.125 A 
HETATM   12  C   UNK N   1      31.220  14.198   3.666  0.00  0.00     0.076 C 
HETATM   13  C   UNK N   1      30.076  15.185   4.263  0.00  0.00     0.176 C 
HETATM   14  C   UNK N   1      28.719  14.519   4.312  0.00  0.00     0.098 C 
HETATM   15  C   UNK N   1      28.163  14.448   2.828  0.00  0.00     0.013 C 
HETATM   16  C   UNK N   1      29.119  14.828   1.685  0.00  0.00     0.023 C 
HETATM   17  C   UNK N   1      27.059  15.466   2.485  0.00  0.00     0.023 C 
HETATM   18  C   UNK N   1      27.492  14.932   5.157  0.00  0.00     0.078 C 
HETATM   19  C   UNK N   1      26.273  13.994   4.729  0.00  0.00     0.164 C 
HETATM   20  O   UNK N   1      29.038  13.285   4.909  0.00  0.00    -0.386 OA
HETATM   21  C   UNK N   1      33.074  15.653   2.751  0.00  0.00     0.210 A 
HETATM   22  O   UNK N   1      34.096  14.783   2.324  0.00  0.00    -0.380 OA
HETATM   23  C   UNK N   1      30.973  11.656   4.103  0.00  0.00     0.027 C 
HETATM   24  H   UNK N   1      29.219  12.460   5.385  0.00  0.00     0.210 HD
ENDROOT
BRANCH  13  25
HETATM   25  O   UNK N   1      30.395  15.857   5.436  0.00  0.00    -0.308 OA
BRANCH  25  26
HETATM   26  C   UNK N   1      30.191  17.169   5.742  0.00  0.00     0.293 C 
HETATM   27  O   UNK N   1      30.249  18.033   4.880  0.00  0.00    -0.259 OA
BRANCH  26  28
HETATM   28  C   UNK N   1      29.806  17.526   7.124  0.00  0.00     0.039 A 
HETATM   29  C   UNK N   1      30.774  17.906   8.067  0.00  0.00     0.017 A 
HETATM   30  C   UNK N   1      30.391  18.262   9.365  0.00  0.00     0.001 A 
HETATM   31  C   UNK N   1      29.041  18.246   9.726  0.00  0.00     0.000 A 
HETATM   32  C   UNK N   1      28.071  17.874   8.792  0.00  0.00     0.001 A 
HETATM   33  C   UNK N   1      28.452  17.518   7.495  0.00  0.00     0.017 A 
ENDBRANCH  26  28
ENDBRANCH  25  26
ENDBRANCH  13  25
BRANCH  19  34
HETATM   34  O   UNK N   1      25.417  13.724   5.771  0.00  0.00    -0.309 OA
BRANCH  34  35
HETATM   35  C   UNK N   1      24.362  14.506   6.104  0.00  0.00     0.290 C 
HETATM   36  O   UNK N   1      24.506  15.513   6.783  0.00  0.00    -0.262 OA
BRANCH  35  37
HETATM   37  C   UNK N   1      23.036  14.182   5.511  0.00  0.00     0.244 C 
BRANCH  37  38
HETATM   38  C   UNK N   1      22.846  15.114   4.297  0.00  0.00     0.156 C 
BRANCH  38  39
HETATM   39  C   UNK N   1      22.736  14.430   2.956  0.00  0.00    -0.033 A 
HETATM   40  C   UNK N   1      23.863  14.261   2.137  0.00  0.00     0.009 A 
HETATM   41  C   UNK N   1      23.717  13.782   0.838  0.00  0.00     0.001 A 
HETATM   42  C   UNK N   1      22.449  13.456   0.350  0.00  0.00     0.000 A 
HETATM   43  C   UNK N   1      21.327  13.594   1.167  0.00  0.00     0.001 A 
HETATM   44  C   UNK N   1      21.468  14.095   2.462  0.00  0.00     0.009 A 
ENDBRANCH  38  39
BRANCH  38  45
HETATM   45  N   UNK N   1      23.886  16.121   4.247  0.00  0.00    -0.345 N 
HETATM   46  C   UNK N   1      23.650  17.439   4.021  0.00  0.00     0.252 C 
HETATM   47  O   UNK N   1      22.501  17.852   3.886  0.00  0.00    -0.268 OA
HETATM   48  H   UNK N   1      24.818  15.834   4.385  0.00  0.00     0.163 HD
BRANCH  46  49
HETATM   49  C   UNK N   1      24.768  18.384   3.940  0.00  0.00     0.032 A 
HETATM   50  C   UNK N   1      24.675  19.517   3.116  0.00  0.00     0.017 A 
HETATM   51  C   UNK N   1      25.729  20.431   3.061  0.00  0.00     0.001 A 
HETATM   52  C   UNK N   1      26.882  20.215   3.821  0.00  0.00     0.000 A 
HETATM   53  C   UNK N   1      26.982  19.085   4.637  0.00  0.00     0.001 A 
HETATM   54  C   UNK N   1      25.926  18.175   4.699  0.00  0.00     0.017 A 
ENDBRANCH  46  49
ENDBRANCH  38  45
ENDBRANCH  37  38
BRANCH  37  55
HETATM   55  O   UNK N   1      23.053  12.851   5.088  0.00  0.00    -0.383 OA
HETATM   56  H   UNK N   1      23.145  12.643   4.146  0.00  0.00     0.210 HD
ENDBRANCH  37  55
ENDBRANCH  35  37
ENDBRANCH  34  35
ENDBRANCH  19  34
BRANCH  11  57
HETATM   57  O   UNK N   1      32.987  15.171   5.189  0.00  0.00    -0.305 OA
BRANCH  57  58
HETATM   58  C   UNK N   1      33.977  16.027   5.570  0.00  0.00     0.255 C 
HETATM   59  O   UNK N   1      35.126  15.643   5.724  0.00  0.00    -0.266 OA
HETATM   60  C   UNK N   1      33.650  17.464   5.796  0.00  0.00     0.126 C 
ENDBRANCH  57  58
ENDBRANCH  11  57
BRANCH   4  61
HETATM   61  O   UNK N   1      27.700  11.562   1.089  0.00  0.00    -0.304 OA
BRANCH  61  62
HETATM   62  C   UNK N   1      27.204  10.329   0.813  0.00  0.00     0.255 C 
HETATM   63  O   UNK N   1      27.943   9.377   0.615  0.00  0.00    -0.266 OA
HETATM   64  C   UNK N   1      25.728  10.141   0.739  0.00  0.00     0.126 C 
ENDBRANCH  61  62
ENDBRANCH   4  61
BRANCH   8  65
HETATM   65  O   UNK N   1      32.581  12.981   1.022  0.00  0.00    -0.375 OA
BRANCH  65  66
HETATM   66  C   UNK N   1      33.475  12.161   0.316  0.00  0.00     0.241 C 
BRANCH  66  67
HETATM   67  S   UNK N   1      32.880  11.848  -1.375  0.00  0.00    -0.148 SA
HETATM   68  C   UNK N   1      34.146  12.919  -2.105  0.00  0.00     0.092 C 
ENDBRANCH  66  67
ENDBRANCH  65  66
ENDBRANCH   8  65
TORSDOF 18
ENDMDL
MODEL 4
REMARK VINA RESULT:      -7.1     10.400     15.520
REMARK  18 active torsions:
REMARK  status: ('A' for Active; 'I' for Inactive)
REMARK    1  A    between atoms: C_4  and  O_62 
REMARK    2  A    between atoms: C_8  and  O_57 
REMARK    3  A    between atoms: C_11  and  O_53 
REMARK    4  A    between atoms: C_13  and  O_42 
REMARK    5  A    between atoms: C_19  and  O_20 
REMARK    6  A    between atoms: O_20  and  C_21 
REMARK    7  A    between atoms: C_21  and  C_23 
REMARK    8  A    between atoms: C_23  and  C_24 
REMARK    9  A    between atoms: C_23  and  O_40 
REMARK   10  A    between atoms: C_24  and  C_25 
REMARK   11  A    between atoms: C_24  and  N_31 
REMARK       I    between atoms: N_31  and  C_32 
REMARK   12  A    between atoms: C_32  and  C_34 
REMARK   13  A    between atoms: O_42  and  C_43 
REMARK   14  A    between atoms: C_43  and  C_45 
REMARK   15  A    between atoms: O_53  and  C_54 
REMARK   16  A    between atoms: O_57  and  C_58 
REMARK   17  A    between atoms: C_58  and  S_59 
REMARK   18  A    between atoms: O_62  and  C_63 
ROOT
HETATM    1  C   UNK N   1      27.230  12.155   3.944  0.00  0.00     0.046 C 
HETATM    2  C   UNK N   1      26.296  12.975   4.781  0.00  0.00    -0.048 C 
HETATM    3  C   UNK N   1      25.069  12.497   5.174  0.00  0.00    -0.028 C 
HETATM    4  C   UNK N   1      24.496  11.222   4.604  0.00  0.00     0.232 C 
HETATM    5  C   UNK N   1      22.948  11.278   4.394  0.00  0.00     0.171 C 
HETATM    6  O   UNK N   1      22.319  10.488   5.080  0.00  0.00    -0.294 OA
HETATM    7  C   UNK N   1      22.112  12.236   3.417  0.00  0.00     0.055 C 
HETATM    8  C   UNK N   1      20.791  11.445   3.124  0.00  0.00     0.141 C 
HETATM    9  C   UNK N   1      19.895  12.128   2.112  0.00  0.00     0.068 C 
HETATM   10  C   UNK N   1      19.318  13.418   2.660  0.00  0.00     0.161 A 
HETATM   11  C   UNK N   1      20.298  14.344   3.327  0.00  0.00     0.125 A 
HETATM   12  C   UNK N   1      21.711  13.810   3.781  0.00  0.00     0.076 C 
HETATM   13  C   UNK N   1      22.631  14.968   4.455  0.00  0.00     0.176 C 
HETATM   14  C   UNK N   1      24.072  14.534   4.604  0.00  0.00     0.098 C 
HETATM   15  C   UNK N   1      24.144  13.501   5.805  0.00  0.00     0.013 C 
HETATM   16  C   UNK N   1      22.817  12.999   6.400  0.00  0.00     0.023 C 
HETATM   17  C   UNK N   1      24.731  14.052   7.119  0.00  0.00     0.023 C 
HETATM   18  C   UNK N   1      25.314  15.433   4.802  0.00  0.00     0.078 C 
HETATM   19  C   UNK N   1      26.568  14.475   5.052  0.00  0.00     0.164 C 
HETATM   20  O   UNK N   1      24.336  14.010   3.325  0.00  0.00    -0.386 OA
HETATM   21  C   UNK N   1      19.319  14.239   4.480  0.00  0.00     0.210 A 
HETATM   22  O   UNK N   1      18.527  13.285   3.813  0.00  0.00    -0.380 OA
HETATM   23  C   UNK N   1      22.830  12.218   2.071  0.00  0.00     0.027 C 
HETATM   24  H   UNK N   1      24.566  13.711   2.431  0.00  0.00     0.210 HD
ENDROOT
BRANCH  13  25
HETATM   25  O   UNK N   1      22.498  16.245   3.925  0.00  0.00    -0.308 OA
BRANCH  25  26
HETATM   26  C   UNK N   1      22.241  17.411   4.580  0.00  0.00     0.293 C 
HETATM   27  O   UNK N   1      22.398  17.501   5.789  0.00  0.00    -0.259 OA
BRANCH  26  28
HETATM   28  C   UNK N   1      21.855  18.600   3.792  0.00  0.00     0.039 A 
HETATM   29  C   UNK N   1      22.816  19.541   3.390  0.00  0.00     0.017 A 
HETATM   30  C   UNK N   1      22.438  20.650   2.625  0.00  0.00     0.001 A 
HETATM   31  C   UNK N   1      21.101  20.823   2.254  0.00  0.00     0.000 A 
HETATM   32  C   UNK N   1      20.140  19.887   2.645  0.00  0.00     0.001 A 
HETATM   33  C   UNK N   1      20.516  18.779   3.409  0.00  0.00     0.017 A 
ENDBRANCH  26  28
ENDBRANCH  25  26
ENDBRANCH  13  25
BRANCH  19  34
HETATM   34  O   UNK N   1      27.739  14.989   4.549  0.00  0.00    -0.309 OA
BRANCH  34  35
HETATM   35  C   UNK N   1      27.845  15.583   3.336  0.00  0.00     0.290 C 
HETATM   36  O   UNK N   1      27.328  15.095   2.341  0.00  0.00    -0.262 OA
BRANCH  35  37
HETATM   37  C   UNK N   1      28.495  16.921   3.265  0.00  0.00     0.244 C 
BRANCH  37  38
HETATM   38  C   UNK N   1      28.539  17.476   4.704  0.00  0.00     0.156 C 
BRANCH  38  39
HETATM   39  C   UNK N   1      27.860  18.808   4.914  0.00  0.00    -0.033 A 
HETATM   40  C   UNK N   1      27.851  19.423   6.175  0.00  0.00     0.009 A 
HETATM   41  C   UNK N   1      27.080  20.562   6.390  0.00  0.00     0.001 A 
HETATM   42  C   UNK N   1      26.326  21.105   5.347  0.00  0.00     0.000 A 
HETATM   43  C   UNK N   1      26.352  20.517   4.083  0.00  0.00     0.001 A 
HETATM   44  C   UNK N   1      27.106  19.361   3.871  0.00  0.00     0.009 A 
ENDBRANCH  38  39
BRANCH  38  45
HETATM   45  N   UNK N   1      29.901  17.539   5.195  0.00  0.00    -0.345 N 
HETATM   46  C   UNK N   1      30.283  17.090   6.417  0.00  0.00     0.252 C 
HETATM   47  O   UNK N   1      29.470  16.557   7.167  0.00  0.00    -0.268 OA
HETATM   48  H   UNK N   1      30.588  17.930   4.608  0.00  0.00     0.163 HD
BRANCH  46  49
HETATM   49  C   UNK N   1      31.676  17.237   6.853  0.00  0.00     0.032 A 
HETATM   50  C   UNK N   1      32.708  17.296   5.904  0.00  0.00     0.017 A 
HETATM   51  C   UNK N   1      34.031  17.465   6.319  0.00  0.00     0.001 A 
HETATM   52  C   UNK N   1      34.329  17.566   7.680  0.00  0.00     0.000 A 
HETATM   53  C   UNK N   1      33.305  17.500   8.629  0.00  0.00     0.001 A 
HETATM   54  C   UNK N   1      31.982  17.340   8.216  0.00  0.00     0.017 A 
ENDBRANCH  46  49
ENDBRANCH  38  45
ENDBRANCH  37  38
BRANCH  37  55
HETATM   55  O   UNK N   1      29.794  16.757   2.780  0.00  0.00    -0.383 OA
HETATM   56  H   UNK N   1      29.944  16.619   1.833  0.00  0.00     0.210 HD
ENDBRANCH  37  55
ENDBRANCH  35  37
ENDBRANCH  34  35
ENDBRANCH  19  34
BRANCH  11  57
HETATM   57  O   UNK N   1      20.286  15.513   2.576  0.00  0.00    -0.305 OA
BRANCH  57  58
HETATM   58  C   UNK N   1      20.577  15.656   1.252  0.00  0.00     0.255 C 
HETATM   59  O   UNK N   1      21.593  15.181   0.769  0.00  0.00    -0.266 OA
HETATM   60  C   UNK N   1      19.630  16.401   0.374  0.00  0.00     0.126 C 
ENDBRANCH  57  58
ENDBRANCH  11  57
BRANCH   4  61
HETATM   61  O   UNK N   1      24.898  10.203   5.457  0.00  0.00    -0.304 OA
BRANCH  61  62
HETATM   62  C   UNK N   1      25.230   8.936   5.098  0.00  0.00     0.255 C 
HETATM   63  O   UNK N   1      24.553   7.980   5.445  0.00  0.00    -0.266 OA
HETATM   64  C   UNK N   1      26.452   8.712   4.277  0.00  0.00     0.126 C 
ENDBRANCH  61  62
ENDBRANCH   4  61
BRANCH   8  65
HETATM   65  O   UNK N   1      20.040  11.108   4.266  0.00  0.00    -0.375 OA
BRANCH  65  66
HETATM   66  C   UNK N   1      19.234  10.033   3.861  0.00  0.00     0.241 C 
BRANCH  66  67
HETATM   67  S   UNK N   1      19.247   8.702   5.101  0.00  0.00    -0.148 SA
HETATM   68  C   UNK N   1      18.069   7.701   4.156  0.00  0.00     0.092 C 
ENDBRANCH  66  67
ENDBRANCH  65  66
ENDBRANCH   8  65
TORSDOF 18
ENDMDL
MODEL 5
REMARK VINA RESULT:      -7.0      1.753      2.670
REMARK  18 active torsions:
REMARK  status: ('A' for Active; 'I' for Inactive)
REMARK    1  A    between atoms: C_4  and  O_62 
REMARK    2  A    between atoms: C_8  and  O_57 
REMARK    3  A    between atoms: C_11  and  O_53 
REMARK    4  A    between atoms: C_13  and  O_42 
REMARK    5  A    between atoms: C_19  and  O_20 
REMARK    6  A    between atoms: O_20  and  C_21 
REMARK    7  A    between atoms: C_21  and  C_23 
REMARK    8  A    between atoms: C_23  and  C_24 
REMARK    9  A    between atoms: C_23  and  O_40 
REMARK   10  A    between atoms: C_24  and  C_25 
REMARK   11  A    between atoms: C_24  and  N_31 
REMARK       I    between atoms: N_31  and  C_32 
REMARK   12  A    between atoms: C_32  and  C_34 
REMARK   13  A    between atoms: O_42  and  C_43 
REMARK   14  A    between atoms: C_43  and  C_45 
REMARK   15  A    between atoms: O_53  and  C_54 
REMARK   16  A    between atoms: O_57  and  C_58 
REMARK   17  A    between atoms: C_58  and  S_59 
REMARK   18  A    between atoms: O_62  and  C_63 
ROOT
HETATM    1  C   UNK N   1      34.483  15.426  10.936  0.00  0.00     0.046 C 
HETATM    2  C   UNK N   1      35.454  14.629  10.119  0.00  0.00    -0.048 C 
HETATM    3  C   UNK N   1      35.642  14.871   8.780  0.00  0.00    -0.028 C 
HETATM    4  C   UNK N   1      34.730  15.791   8.006  0.00  0.00     0.232 C 
HETATM    5  C   UNK N   1      34.460  15.309   6.544  0.00  0.00     0.171 C 
HETATM    6  O   UNK N   1      34.881  16.062   5.681  0.00  0.00    -0.294 OA
HETATM    7  C   UNK N   1      33.723  13.970   6.060  0.00  0.00     0.055 C 
HETATM    8  C   UNK N   1      33.163  14.319   4.638  0.00  0.00     0.141 C 
HETATM    9  C   UNK N   1      32.317  13.214   4.038  0.00  0.00     0.068 C 
HETATM   10  C   UNK N   1      33.152  11.993   3.705  0.00  0.00     0.161 A 
HETATM   11  C   UNK N   1      34.088  11.524   4.784  0.00  0.00     0.125 A 
HETATM   12  C   UNK N   1      34.462  12.481   5.981  0.00  0.00     0.076 C 
HETATM   13  C   UNK N   1      35.463  11.781   7.053  0.00  0.00     0.176 C 
HETATM   14  C   UNK N   1      35.571  12.577   8.335  0.00  0.00     0.098 C 
HETATM   15  C   UNK N   1      36.463  13.854   8.036  0.00  0.00     0.013 C 
HETATM   16  C   UNK N   1      36.834  14.143   6.572  0.00  0.00     0.023 C 
HETATM   17  C   UNK N   1      37.904  13.796   8.578  0.00  0.00     0.023 C 
HETATM   18  C   UNK N   1      36.062  12.085   9.715  0.00  0.00     0.078 C 
HETATM   19  C   UNK N   1      36.121  13.351  10.686  0.00  0.00     0.164 C 
HETATM   20  O   UNK N   1      34.215  12.827   8.620  0.00  0.00    -0.386 OA
HETATM   21  C   UNK N   1      35.120  11.660   3.682  0.00  0.00     0.210 A 
HETATM   22  O   UNK N   1      34.186  12.201   2.778  0.00  0.00    -0.380 OA
HETATM   23  C   UNK N   1      32.459  13.839   6.904  0.00  0.00     0.027 C 
HETATM   24  H   UNK N   1      33.288  12.949   8.877  0.00  0.00     0.210 HD
ENDROOT
BRANCH  13  25
HETATM   25  O   UNK N   1      35.278  10.422   7.270  0.00  0.00    -0.308 OA
BRANCH  25  26
HETATM   26  C   UNK N   1      36.184   9.413   7.140  0.00  0.00     0.293 C 
HETATM   27  O   UNK N   1      36.162   8.668   6.171  0.00  0.00    -0.259 OA
BRANCH  26  28
HETATM   28  C   UNK N   1      37.258   9.286   8.148  0.00  0.00     0.039 A 
HETATM   29  C   UNK N   1      38.482   9.953   7.985  0.00  0.00     0.017 A 
HETATM   30  C   UNK N   1      39.480   9.841   8.958  0.00  0.00     0.001 A 
HETATM   31  C   UNK N   1      39.260   9.068  10.102  0.00  0.00     0.000 A 
HETATM   32  C   UNK N   1      38.042   8.406  10.275  0.00  0.00     0.001 A 
HETATM   33  C   UNK N   1      37.044   8.516   9.303  0.00  0.00     0.017 A 
ENDBRANCH  26  28
ENDBRANCH  25  26
ENDBRANCH  13  25
BRANCH  19  34
HETATM   34  O   UNK N   1      35.833  13.034  11.993  0.00  0.00    -0.309 OA
BRANCH  34  35
HETATM   35  C   UNK N   1      36.774  12.764  12.930  0.00  0.00     0.290 C 
HETATM   36  O   UNK N   1      37.859  12.291  12.624  0.00  0.00    -0.262 OA
BRANCH  35  37
HETATM   37  C   UNK N   1      36.506  13.183  14.333  0.00  0.00     0.244 C 
BRANCH  37  38
HETATM   38  C   UNK N   1      35.479  12.188  14.910  0.00  0.00     0.156 C 
BRANCH  38  39
HETATM   39  C   UNK N   1      35.352  12.176  16.415  0.00  0.00    -0.033 A 
HETATM   40  C   UNK N   1      35.051  13.350  17.123  0.00  0.00     0.009 A 
HETATM   41  C   UNK N   1      35.104  13.358  18.514  0.00  0.00     0.001 A 
HETATM   42  C   UNK N   1      35.444  12.195  19.209  0.00  0.00     0.000 A 
HETATM   43  C   UNK N   1      35.717  11.018  18.514  0.00  0.00     0.001 A 
HETATM   44  C   UNK N   1      35.687  11.012  17.119  0.00  0.00     0.009 A 
ENDBRANCH  38  39
BRANCH  38  45
HETATM   45  N   UNK N   1      35.731  10.844  14.432  0.00  0.00    -0.345 N 
HETATM   46  C   UNK N   1      34.849  10.132  13.684  0.00  0.00     0.252 C 
HETATM   47  O   UNK N   1      33.782  10.630  13.337  0.00  0.00    -0.268 OA
HETATM   48  H   UNK N   1      36.591  10.423  14.661  0.00  0.00     0.163 HD
BRANCH  46  49
HETATM   49  C   UNK N   1      35.167   8.758  13.281  0.00  0.00     0.032 A 
HETATM   50  C   UNK N   1      34.605   8.219  12.113  0.00  0.00     0.017 A 
HETATM   51  C   UNK N   1      34.931   6.921  11.715  0.00  0.00     0.001 A 
HETATM   52  C   UNK N   1      35.810   6.154  12.484  0.00  0.00     0.000 A 
HETATM   53  C   UNK N   1      36.365   6.684  13.652  0.00  0.00     0.001 A 
HETATM   54  C   UNK N   1      36.047   7.984  14.046  0.00  0.00     0.017 A 
ENDBRANCH  46  49
ENDBRANCH  38  45
ENDBRANCH  37  38
BRANCH  37  55
HETATM   55  O   UNK N   1      37.699  13.105  15.055  0.00  0.00    -0.383 OA
HETATM   56  H   UNK N   1      37.732  13.417  15.972  0.00  0.00     0.210 HD
ENDBRANCH  37  55
ENDBRANCH  35  37
ENDBRANCH  34  35
ENDBRANCH  19  34
BRANCH  11  57
HETATM   57  O   UNK N   1      33.668  10.242   5.119  0.00  0.00    -0.305 OA
BRANCH  57  58
HETATM   58  C   UNK N   1      32.421   9.848   5.503  0.00  0.00     0.255 C 
HETATM   59  O   UNK N   1      31.892  10.299   6.507  0.00  0.00    -0.266 OA
HETATM   60  C   UNK N   1      31.686   8.851   4.673  0.00  0.00     0.126 C 
ENDBRANCH  57  58
ENDBRANCH  11  57
BRANCH   4  61
HETATM   61  O   UNK N   1      35.309  17.052   8.070  0.00  0.00    -0.304 OA
BRANCH  61  62
HETATM   62  C   UNK N   1      34.658  18.227   8.270  0.00  0.00     0.255 C 
HETATM   63  O   UNK N   1      35.266  19.251   8.545  0.00  0.00    -0.266 OA
HETATM   64  C   UNK N   1      33.173  18.262   8.163  0.00  0.00     0.126 C 
ENDBRANCH  61  62
ENDBRANCH   4  61
BRANCH   8  65
HETATM   65  O   UNK N   1      34.136  14.727   3.706  0.00  0.00    -0.375 OA
BRANCH  65  66
HETATM   66  C   UNK N   1      33.419  15.423   2.720  0.00  0.00     0.241 C 
BRANCH  66  67
HETATM   67  S   UNK N   1      32.692  16.948   3.396  0.00  0.00    -0.148 SA
HETATM   68  C   UNK N   1      31.023  16.480   2.870  0.00  0.00     0.092 C 
ENDBRANCH  66  67
ENDBRANCH  65  66
ENDBRANCH   8  65
TORSDOF 18
ENDMDL
MODEL 6
REMARK VINA RESULT:      -6.9     10.551     15.303
REMARK  18 active torsions:
REMARK  status: ('A' for Active; 'I' for Inactive)
REMARK    1  A    between atoms: C_4  and  O_62 
REMARK    2  A    between atoms: C_8  and  O_57 
REMARK    3  A    between atoms: C_11  and  O_53 
REMARK    4  A    between atoms: C_13  and  O_42 
REMARK    5  A    between atoms: C_19  and  O_20 
REMARK    6  A    between atoms: O_20  and  C_21 
REMARK    7  A    between atoms: C_21  and  C_23 
REMARK    8  A    between atoms: C_23  and  C_24 
REMARK    9  A    between atoms: C_23  and  O_40 
REMARK   10  A    between atoms: C_24  and  C_25 
REMARK   11  A    between atoms: C_24  and  N_31 
REMARK       I    between atoms: N_31  and  C_32 
REMARK   12  A    between atoms: C_32  and  C_34 
REMARK   13  A    between atoms: O_42  and  C_43 
REMARK   14  A    between atoms: C_43  and  C_45 
REMARK   15  A    between atoms: O_53  and  C_54 
REMARK   16  A    between atoms: O_57  and  C_58 
REMARK   17  A    between atoms: C_58  and  S_59 
REMARK   18  A    between atoms: O_62  and  C_63 
ROOT
HETATM    1  C   UNK N   1      27.190  13.612   1.958  0.00  0.00     0.046 C 
HETATM    2  C   UNK N   1      26.449  13.567   3.260  0.00  0.00    -0.048 C 
HETATM    3  C   UNK N   1      25.329  12.789   3.428  0.00  0.00    -0.028 C 
HETATM    4  C   UNK N   1      24.650  12.116   2.261  0.00  0.00     0.232 C 
HETATM    5  C   UNK N   1      23.092  12.083   2.385  0.00  0.00     0.171 C 
HETATM    6  O   UNK N   1      22.618  10.963   2.471  0.00  0.00    -0.294 OA
HETATM    7  C   UNK N   1      22.073  13.321   2.422  0.00  0.00     0.055 C 
HETATM    8  C   UNK N   1      20.719  12.734   1.894  0.00  0.00     0.141 C 
HETATM    9  C   UNK N   1      19.634  13.779   1.734  0.00  0.00     0.068 C 
HETATM   10  C   UNK N   1      19.184  14.323   3.076  0.00  0.00     0.161 A 
HETATM   11  C   UNK N   1      20.281  14.726   4.022  0.00  0.00     0.125 A 
HETATM   12  C   UNK N   1      21.757  14.221   3.786  0.00  0.00     0.076 C 
HETATM   13  C   UNK N   1      22.797  14.786   4.900  0.00  0.00     0.176 C 
HETATM   14  C   UNK N   1      24.238  14.558   4.500  0.00  0.00     0.098 C 
HETATM   15  C   UNK N   1      24.555  13.017   4.698  0.00  0.00     0.013 C 
HETATM   16  C   UNK N   1      23.380  12.077   5.015  0.00  0.00     0.023 C 
HETATM   17  C   UNK N   1      25.402  12.669   5.937  0.00  0.00     0.023 C 
HETATM   18  C   UNK N   1      25.495  15.277   5.041  0.00  0.00     0.078 C 
HETATM   19  C   UNK N   1      26.772  14.562   4.402  0.00  0.00     0.164 C 
HETATM   20  O   UNK N   1      24.232  15.019   3.170  0.00  0.00    -0.386 OA
HETATM   21  C   UNK N   1      19.561  13.774   4.958  0.00  0.00     0.210 A 
HETATM   22  O   UNK N   1      18.648  13.376   3.964  0.00  0.00    -0.380 OA
HETATM   23  C   UNK N   1      22.498  14.268   1.304  0.00  0.00     0.027 C 
HETATM   24  H   UNK N   1      24.272  15.398   2.278  0.00  0.00     0.210 HD
ENDROOT
BRANCH  13  25
HETATM   25  O   UNK N   1      22.559  16.073   5.366  0.00  0.00    -0.308 OA
BRANCH  25  26
HETATM   26  C   UNK N   1      22.063  16.456   6.576  0.00  0.00     0.293 C 
HETATM   27  O   UNK N   1      21.790  17.626   6.802  0.00  0.00    -0.259 OA
BRANCH  26  28
HETATM   28  C   UNK N   1      21.772  15.417   7.586  0.00  0.00     0.039 A 
HETATM   29  C   UNK N   1      22.688  14.385   7.845  0.00  0.00     0.017 A 
HETATM   30  C   UNK N   1      22.407  13.422   8.820  0.00  0.00     0.001 A 
HETATM   31  C   UNK N   1      21.214  13.487   9.546  0.00  0.00     0.000 A 
HETATM   32  C   UNK N   1      20.299  14.515   9.299  0.00  0.00     0.001 A 
HETATM   33  C   UNK N   1      20.578  15.477   8.324  0.00  0.00     0.017 A 
ENDBRANCH  26  28
ENDBRANCH  25  26
ENDBRANCH  13  25
BRANCH  19  34
HETATM   34  O   UNK N   1      27.815  15.431   4.184  0.00  0.00    -0.309 OA
BRANCH  34  35
HETATM   35  C   UNK N   1      28.993  15.380   4.853  0.00  0.00     0.290 C 
HETATM   36  O   UNK N   1      29.333  14.379   5.466  0.00  0.00    -0.262 OA
BRANCH  35  37
HETATM   37  C   UNK N   1      29.928  16.530   4.713  0.00  0.00     0.244 C 
BRANCH  37  38
HETATM   38  C   UNK N   1      29.298  17.716   5.470  0.00  0.00     0.156 C 
BRANCH  38  39
HETATM   39  C   UNK N   1      29.198  17.558   6.969  0.00  0.00    -0.033 A 
HETATM   40  C   UNK N   1      27.986  17.197   7.577  0.00  0.00     0.009 A 
HETATM   41  C   UNK N   1      27.867  17.220   8.963  0.00  0.00     0.001 A 
HETATM   42  C   UNK N   1      28.958  17.590   9.754  0.00  0.00     0.000 A 
HETATM   43  C   UNK N   1      30.174  17.922   9.159  0.00  0.00     0.001 A 
HETATM   44  C   UNK N   1      30.290  17.922   7.768  0.00  0.00     0.009 A 
ENDBRANCH  38  39
BRANCH  38  45
HETATM   45  N   UNK N   1      27.997  18.049   4.927  0.00  0.00    -0.345 N 
HETATM   46  C   UNK N   1      27.581  19.319   4.692  0.00  0.00     0.252 C 
HETATM   47  O   UNK N   1      28.330  20.269   4.899  0.00  0.00    -0.268 OA
HETATM   48  H   UNK N   1      27.380  17.311   4.716  0.00  0.00     0.163 HD
BRANCH  46  49
HETATM   49  C   UNK N   1      26.228  19.568   4.183  0.00  0.00     0.032 A 
HETATM   50  C   UNK N   1      26.030  20.443   3.104  0.00  0.00     0.017 A 
HETATM   51  C   UNK N   1      24.745  20.657   2.602  0.00  0.00     0.001 A 
HETATM   52  C   UNK N   1      23.652  20.006   3.179  0.00  0.00     0.000 A 
HETATM   53  C   UNK N   1      23.843  19.139   4.259  0.00  0.00     0.001 A 
HETATM   54  C   UNK N   1      25.128  18.918   4.756  0.00  0.00     0.017 A 
ENDBRANCH  46  49
ENDBRANCH  38  45
ENDBRANCH  37  38
BRANCH  37  55
HETATM   55  O   UNK N   1      31.146  16.184   5.302  0.00  0.00    -0.383 OA
HETATM   56  H   UNK N   1      31.189  15.992   6.251  0.00  0.00     0.210 HD
ENDBRANCH  37  55
ENDBRANCH  35  37
ENDBRANCH  34  35
ENDBRANCH  19  34
BRANCH  11  57
HETATM   57  O   UNK N   1      20.115  16.089   4.236  0.00  0.00    -0.305 OA
BRANCH  57  58
HETATM   58  C   UNK N   1      19.931  17.063   3.300  0.00  0.00     0.255 C 
HETATM   59  O   UNK N   1      18.893  17.702   3.244  0.00  0.00    -0.266 OA
HETATM   60  C   UNK N   1      21.026  17.357   2.333  0.00  0.00     0.126 C 
ENDBRANCH  57  58
ENDBRANCH  11  57
BRANCH   4  61
HETATM   61  O   UNK N   1      25.219  10.853   2.160  0.00  0.00    -0.304 OA
BRANCH  61  62
HETATM   62  C   UNK N   1      25.733  10.289   1.037  0.00  0.00     0.255 C 
HETATM   63  O   UNK N   1      26.932  10.314   0.805  0.00  0.00    -0.266 OA
HETATM   64  C   UNK N   1      24.810   9.639   0.064  0.00  0.00     0.126 C 
ENDBRANCH  61  62
ENDBRANCH   4  61
BRANCH   8  65
HETATM   65  O   UNK N   1      20.220  11.645   2.633  0.00  0.00    -0.375 OA
BRANCH  65  66
HETATM   66  C   UNK N   1      19.449  10.913   1.718  0.00  0.00     0.241 C 
BRANCH  66  67
HETATM   67  S   UNK N   1      18.421   9.677   2.570  0.00  0.00    -0.148 SA
HETATM   68  C   UNK N   1      17.291   9.529   1.162  0.00  0.00     0.092 C 
ENDBRANCH  66  67
ENDBRANCH  65  66
ENDBRANCH   8  65
TORSDOF 18
ENDMDL
MODEL 7
REMARK VINA RESULT:      -6.8      8.916     13.936
REMARK  18 active torsions:
REMARK  status: ('A' for Active; 'I' for Inactive)
REMARK    1  A    between atoms: C_4  and  O_62 
REMARK    2  A    between atoms: C_8  and  O_57 
REMARK    3  A    between atoms: C_11  and  O_53 
REMARK    4  A    between atoms: C_13  and  O_42 
REMARK    5  A    between atoms: C_19  and  O_20 
REMARK    6  A    between atoms: O_20  and  C_21 
REMARK    7  A    between atoms: C_21  and  C_23 
REMARK    8  A    between atoms: C_23  and  C_24 
REMARK    9  A    between atoms: C_23  and  O_40 
REMARK   10  A    between atoms: C_24  and  C_25 
REMARK   11  A    between atoms: C_24  and  N_31 
REMARK       I    between atoms: N_31  and  C_32 
REMARK   12  A    between atoms: C_32  and  C_34 
REMARK   13  A    between atoms: O_42  and  C_43 
REMARK   14  A    between atoms: C_43  and  C_45 
REMARK   15  A    between atoms: O_53  and  C_54 
REMARK   16  A    between atoms: O_57  and  C_58 
REMARK   17  A    between atoms: C_58  and  S_59 
REMARK   18  A    between atoms: O_62  and  C_63 
ROOT
HETATM    1  C   UNK N   1      28.359  13.348   1.594  0.00  0.00     0.046 C 
HETATM    2  C   UNK N   1      27.624  13.905   2.775  0.00  0.00    -0.048 C 
HETATM    3  C   UNK N   1      26.488  13.309   3.267  0.00  0.00    -0.028 C 
HETATM    4  C   UNK N   1      25.789  12.199   2.520  0.00  0.00     0.232 C 
HETATM    5  C   UNK N   1      24.232  12.258   2.637  0.00  0.00     0.171 C 
HETATM    6  O   UNK N   1      23.734  11.304   3.213  0.00  0.00    -0.294 OA
HETATM    7  C   UNK N   1      23.240  13.403   2.113  0.00  0.00     0.055 C 
HETATM    8  C   UNK N   1      21.871  12.671   1.895  0.00  0.00     0.141 C 
HETATM    9  C   UNK N   1      20.807  13.557   1.280  0.00  0.00     0.068 C 
HETATM   10  C   UNK N   1      20.375  14.652   2.235  0.00  0.00     0.161 A 
HETATM   11  C   UNK N   1      21.485  15.412   2.907  0.00  0.00     0.125 A 
HETATM   12  C   UNK N   1      22.949  14.824   2.929  0.00  0.00     0.076 C 
HETATM   13  C   UNK N   1      24.006  15.805   3.678  0.00  0.00     0.176 C 
HETATM   14  C   UNK N   1      25.440  15.392   3.430  0.00  0.00     0.098 C 
HETATM   15  C   UNK N   1      25.725  14.095   4.297  0.00  0.00     0.013 C 
HETATM   16  C   UNK N   1      24.532  13.421   4.995  0.00  0.00     0.023 C 
HETATM   17  C   UNK N   1      26.570  14.320   5.566  0.00  0.00     0.023 C 
HETATM   18  C   UNK N   1      26.714  16.250   3.599  0.00  0.00     0.078 C 
HETATM   19  C   UNK N   1      27.973  15.299   3.353  0.00  0.00     0.164 C 
HETATM   20  O   UNK N   1      25.437  15.210   2.034  0.00  0.00    -0.386 OA
HETATM   21  C   UNK N   1      20.750  14.995   4.165  0.00  0.00     0.210 A 
HETATM   22  O   UNK N   1      19.824  14.213   3.449  0.00  0.00    -0.380 OA
HETATM   23  C   UNK N   1      23.679  13.742   0.691  0.00  0.00     0.027 C 
HETATM   24  H   UNK N   1      25.481  15.150   1.067  0.00  0.00     0.210 HD
ENDROOT
BRANCH  13  25
HETATM   25  O   UNK N   1      23.798  17.170   3.520  0.00  0.00    -0.308 OA
BRANCH  25  26
HETATM   26  C   UNK N   1      23.854  18.149   4.464  0.00  0.00     0.293 C 
HETATM   27  O   UNK N   1      22.994  18.240   5.329  0.00  0.00    -0.259 OA
BRANCH  26  28
HETATM   28  C   UNK N   1      25.025  19.052   4.485  0.00  0.00     0.039 A 
HETATM   29  C   UNK N   1      25.783  19.222   5.654  0.00  0.00     0.017 A 
HETATM   30  C   UNK N   1      26.901  20.062   5.652  0.00  0.00     0.001 A 
HETATM   31  C   UNK N   1      27.272  20.733   4.482  0.00  0.00     0.000 A 
HETATM   32  C   UNK N   1      26.526  20.563   3.313  0.00  0.00     0.001 A 
HETATM   33  C   UNK N   1      25.408  19.725   3.313  0.00  0.00     0.017 A 
ENDBRANCH  26  28
ENDBRANCH  25  26
ENDBRANCH  13  25
BRANCH  19  34
HETATM   34  O   UNK N   1      29.034  15.957   2.776  0.00  0.00    -0.309 OA
BRANCH  34  35
HETATM   35  C   UNK N   1      30.225  16.154   3.391  0.00  0.00     0.290 C 
HETATM   36  O   UNK N   1      31.234  15.567   3.027  0.00  0.00    -0.262 OA
BRANCH  35  37
HETATM   37  C   UNK N   1      30.305  17.208   4.440  0.00  0.00     0.244 C 
BRANCH  37  38
HETATM   38  C   UNK N   1      30.472  16.485   5.792  0.00  0.00     0.156 C 
BRANCH  38  39
HETATM   39  C   UNK N   1      29.905  17.203   6.993  0.00  0.00    -0.033 A 
HETATM   40  C   UNK N   1      30.748  17.798   7.943  0.00  0.00     0.009 A 
HETATM   41  C   UNK N   1      30.218  18.307   9.125  0.00  0.00     0.001 A 
HETATM   42  C   UNK N   1      28.844  18.237   9.364  0.00  0.00     0.000 A 
HETATM   43  C   UNK N   1      27.995  17.673   8.413  0.00  0.00     0.001 A 
HETATM   44  C   UNK N   1      28.526  17.142   7.236  0.00  0.00     0.009 A 
ENDBRANCH  38  39
BRANCH  38  45
HETATM   45  N   UNK N   1      31.860  16.150   6.034  0.00  0.00    -0.345 N 
HETATM   46  C   UNK N   1      32.298  14.890   6.289  0.00  0.00     0.252 C 
HETATM   47  O   UNK N   1      31.515  13.945   6.282  0.00  0.00    -0.268 OA
HETATM   48  H   UNK N   1      32.524  16.877   6.014  0.00  0.00     0.163 HD
BRANCH  46  49
HETATM   49  C   UNK N   1      33.717  14.647   6.570  0.00  0.00     0.032 A 
HETATM   50  C   UNK N   1      34.110  14.135   7.817  0.00  0.00     0.017 A 
HETATM   51  C   UNK N   1      35.458  13.877   8.074  0.00  0.00     0.001 A 
HETATM   52  C   UNK N   1      36.419  14.136   7.092  0.00  0.00     0.000 A 
HETATM   53  C   UNK N   1      36.033  14.653   5.853  0.00  0.00     0.001 A 
HETATM   54  C   UNK N   1      34.685  14.904   5.592  0.00  0.00     0.017 A 
ENDBRANCH  46  49
ENDBRANCH  38  45
ENDBRANCH  37  38
BRANCH  37  55
HETATM   55  O   UNK N   1      31.426  18.002   4.186  0.00  0.00    -0.383 OA
HETATM   56  H   UNK N   1      32.076  17.725   3.522  0.00  0.00     0.210 HD
ENDBRANCH  37  55
ENDBRANCH  35  37
ENDBRANCH  34  35
ENDBRANCH  19  34
BRANCH  11  57
HETATM   57  O   UNK N   1      21.349  16.731   2.489  0.00  0.00    -0.305 OA
BRANCH  57  58
HETATM   58  C   UNK N   1      20.249  17.322   1.942  0.00  0.00     0.255 C 
HETATM   59  O   UNK N   1      19.419  17.885   2.636  0.00  0.00    -0.266 OA
HETATM   60  C   UNK N   1      20.064  17.286   0.463  0.00  0.00     0.126 C 
ENDBRANCH  57  58
ENDBRANCH  11  57
BRANCH   4  61
HETATM   61  O   UNK N   1      26.331  11.012   2.997  0.00  0.00    -0.304 OA
BRANCH  61  62
HETATM   62  C   UNK N   1      26.943  10.052   2.257  0.00  0.00     0.255 C 
HETATM   63  O   UNK N   1      27.839   9.365   2.724  0.00  0.00    -0.266 OA
HETATM   64  C   UNK N   1      26.519   9.845   0.844  0.00  0.00     0.126 C 
ENDBRANCH  61  62
ENDBRANCH   4  61
BRANCH   8  65
HETATM   65  O   UNK N   1      21.353  12.038   3.040  0.00  0.00    -0.375 OA
BRANCH  65  66
HETATM   66  C   UNK N   1      20.543  11.004   2.544  0.00  0.00     0.241 C 
BRANCH  66  67
HETATM   67  S   UNK N   1      20.112   9.823   3.858  0.00  0.00    -0.148 SA
HETATM   68  C   UNK N   1      20.104  11.115   5.128  0.00  0.00     0.092 C 
ENDBRANCH  66  67
ENDBRANCH  65  66
ENDBRANCH   8  65
TORSDOF 18
ENDMDL
MODEL 8
REMARK VINA RESULT:      -6.8      9.630     14.746
REMARK  18 active torsions:
REMARK  status: ('A' for Active; 'I' for Inactive)
REMARK    1  A    between atoms: C_4  and  O_62 
REMARK    2  A    between atoms: C_8  and  O_57 
REMARK    3  A    between atoms: C_11  and  O_53 
REMARK    4  A    between atoms: C_13  and  O_42 
REMARK    5  A    between atoms: C_19  and  O_20 
REMARK    6  A    between atoms: O_20  and  C_21 
REMARK    7  A    between atoms: C_21  and  C_23 
REMARK    8  A    between atoms: C_23  and  C_24 
REMARK    9  A    between atoms: C_23  and  O_40 
REMARK   10  A    between atoms: C_24  and  C_25 
REMARK   11  A    between atoms: C_24  and  N_31 
REMARK       I    between atoms: N_31  and  C_32 
REMARK   12  A    between atoms: C_32  and  C_34 
REMARK   13  A    between atoms: O_42  and  C_43 
REMARK   14  A    between atoms: C_43  and  C_45 
REMARK   15  A    between atoms: O_53  and  C_54 
REMARK   16  A    between atoms: O_57  and  C_58 
REMARK   17  A    between atoms: C_58  and  S_59 
REMARK   18  A    between atoms: O_62  and  C_63 
ROOT
HETATM    1  C   UNK N   1      27.909  12.456   1.186  0.00  0.00     0.046 C 
HETATM    2  C   UNK N   1      27.214  12.943   2.421  0.00  0.00    -0.048 C 
HETATM    3  C   UNK N   1      25.998  12.437   2.814  0.00  0.00    -0.028 C 
HETATM    4  C   UNK N   1      25.189  11.533   1.915  0.00  0.00     0.232 C 
HETATM    5  C   UNK N   1      23.648  11.776   2.020  0.00  0.00     0.171 C 
HETATM    6  O   UNK N   1      23.018  10.826   2.455  0.00  0.00    -0.294 OA
HETATM    7  C   UNK N   1      22.823  13.098   1.641  0.00  0.00     0.055 C 
HETATM    8  C   UNK N   1      21.381  12.582   1.309  0.00  0.00     0.141 C 
HETATM    9  C   UNK N   1      20.456  13.670   0.805  0.00  0.00     0.068 C 
HETATM   10  C   UNK N   1      20.135  14.676   1.893  0.00  0.00     0.161 A 
HETATM   11  C   UNK N   1      21.311  15.193   2.675  0.00  0.00     0.125 A 
HETATM   12  C   UNK N   1      22.688  14.424   2.637  0.00  0.00     0.076 C 
HETATM   13  C   UNK N   1      23.837  15.155   3.525  0.00  0.00     0.176 C 
HETATM   14  C   UNK N   1      25.215  14.598   3.242  0.00  0.00     0.098 C 
HETATM   15  C   UNK N   1      25.309  13.172   3.931  0.00  0.00     0.013 C 
HETATM   16  C   UNK N   1      24.020  12.571   4.516  0.00  0.00     0.023 C 
HETATM   17  C   UNK N   1      26.138  13.118   5.229  0.00  0.00     0.023 C 
HETATM   18  C   UNK N   1      26.581  15.256   3.541  0.00  0.00     0.078 C 
HETATM   19  C   UNK N   1      27.718  14.191   3.186  0.00  0.00     0.164 C 
HETATM   20  O   UNK N   1      25.231  14.603   1.834  0.00  0.00    -0.386 OA
HETATM   21  C   UNK N   1      20.492  14.711   3.856  0.00  0.00     0.210 A 
HETATM   22  O   UNK N   1      19.497  14.156   3.030  0.00  0.00    -0.380 OA
HETATM   23  C   UNK N   1      23.344  13.562   0.283  0.00  0.00     0.027 C 
HETATM   24  H   UNK N   1      25.296  14.665   0.869  0.00  0.00     0.210 HD
ENDROOT
BRANCH  13  25
HETATM   25  O   UNK N   1      23.806  16.543   3.548  0.00  0.00    -0.308 OA
BRANCH  25  26
HETATM   26  C   UNK N   1      23.691  17.369   4.625  0.00  0.00     0.293 C 
HETATM   27  O   UNK N   1      24.309  18.422   4.681  0.00  0.00    -0.259 OA
BRANCH  26  28
HETATM   28  C   UNK N   1      22.731  17.016   5.693  0.00  0.00     0.039 A 
HETATM   29  C   UNK N   1      21.648  17.855   5.996  0.00  0.00     0.017 A 
HETATM   30  C   UNK N   1      20.736  17.496   6.994  0.00  0.00     0.001 A 
HETATM   31  C   UNK N   1      20.897  16.295   7.691  0.00  0.00     0.000 A 
HETATM   32  C   UNK N   1      21.969  15.450   7.391  0.00  0.00     0.001 A 
HETATM   33  C   UNK N   1      22.881  15.808   6.394  0.00  0.00     0.017 A 
ENDBRANCH  26  28
ENDBRANCH  25  26
ENDBRANCH  13  25
BRANCH  19  34
HETATM   34  O   UNK N   1      28.869  14.778   2.717  0.00  0.00    -0.309 OA
BRANCH  34  35
HETATM   35  C   UNK N   1      29.830  15.301   3.516  0.00  0.00     0.290 C 
HETATM   36  O   UNK N   1      30.696  14.596   4.014  0.00  0.00    -0.262 OA
BRANCH  35  37
HETATM   37  C   UNK N   1      29.886  16.781   3.667  0.00  0.00     0.244 C 
BRANCH  37  38
HETATM   38  C   UNK N   1      29.580  17.093   5.146  0.00  0.00     0.156 C 
BRANCH  38  39
HETATM   39  C   UNK N   1      28.639  18.249   5.390  0.00  0.00    -0.033 A 
HETATM   40  C   UNK N   1      28.135  19.008   4.323  0.00  0.00     0.009 A 
HETATM   41  C   UNK N   1      27.408  20.168   4.574  0.00  0.00     0.001 A 
HETATM   42  C   UNK N   1      27.165  20.572   5.889  0.00  0.00     0.000 A 
HETATM   43  C   UNK N   1      27.638  19.809   6.955  0.00  0.00     0.001 A 
HETATM   44  C   UNK N   1      28.387  18.657   6.707  0.00  0.00     0.009 A 
ENDBRANCH  38  39
BRANCH  38  45
HETATM   45  N   UNK N   1      30.801  17.292   5.899  0.00  0.00    -0.345 N 
HETATM   46  C   UNK N   1      31.225  16.455   6.881  0.00  0.00     0.252 C 
HETATM   47  O   UNK N   1      30.591  15.440   7.152  0.00  0.00    -0.268 OA
HETATM   48  H   UNK N   1      31.355  18.078   5.688  0.00  0.00     0.163 HD
BRANCH  46  49
HETATM   49  C   UNK N   1      32.452  16.758   7.627  0.00  0.00     0.032 A 
HETATM   50  C   UNK N   1      33.157  17.945   7.372  0.00  0.00     0.017 A 
HETATM   51  C   UNK N   1      34.308  18.245   8.103  0.00  0.00     0.001 A 
HETATM   52  C   UNK N   1      34.765  17.360   9.082  0.00  0.00     0.000 A 
HETATM   53  C   UNK N   1      34.071  16.173   9.333  0.00  0.00     0.001 A 
HETATM   54  C   UNK N   1      32.916  15.876   8.610  0.00  0.00     0.017 A 
ENDBRANCH  46  49
ENDBRANCH  38  45
ENDBRANCH  37  38
BRANCH  37  55
HETATM   55  O   UNK N   1      31.177  17.210   3.350  0.00  0.00    -0.383 OA
HETATM   56  H   UNK N   1      31.940  16.652   3.563  0.00  0.00     0.210 HD
ENDBRANCH  37  55
ENDBRANCH  35  37
ENDBRANCH  34  35
ENDBRANCH  19  34
BRANCH  11  57
HETATM   57  O   UNK N   1      21.354  16.561   2.436  0.00  0.00    -0.305 OA
BRANCH  57  58
HETATM   58  C   UNK N   1      20.358  17.353   1.945  0.00  0.00     0.255 C 
HETATM   59  O   UNK N   1      20.124  17.411   0.749  0.00  0.00    -0.266 OA
HETATM   60  C   UNK N   1      19.535  18.157   2.893  0.00  0.00     0.126 C 
ENDBRANCH  57  58
ENDBRANCH  11  57
BRANCH   4  61
HETATM   61  O   UNK N   1      25.563  10.235   2.236  0.00  0.00    -0.304 OA
BRANCH  61  62
HETATM   62  C   UNK N   1      26.005   9.288   1.369  0.00  0.00     0.255 C 
HETATM   63  O   UNK N   1      25.296   8.874   0.465  0.00  0.00    -0.266 OA
HETATM   64  C   UNK N   1      27.378   8.735   1.536  0.00  0.00     0.126 C 
ENDBRANCH  61  62
ENDBRANCH   4  61
BRANCH   8  65
HETATM   65  O   UNK N   1      20.753  11.875   2.352  0.00  0.00    -0.375 OA
BRANCH  65  66
HETATM   66  C   UNK N   1      19.820  11.045   1.712  0.00  0.00     0.241 C 
BRANCH  66  67
HETATM   67  S   UNK N   1      18.660  10.319   2.912  0.00  0.00    -0.148 SA
HETATM   68  C   UNK N   1      19.641  10.888   4.325  0.00  0.00     0.092 C 
ENDBRANCH  66  67
ENDBRANCH  65  66
ENDBRANCH   8  65
TORSDOF 18
ENDMDL
MODEL 9
REMARK VINA RESULT:      -6.8      6.802     10.878
REMARK  18 active torsions:
REMARK  status: ('A' for Active; 'I' for Inactive)
REMARK    1  A    between atoms: C_4  and  O_62 
REMARK    2  A    between atoms: C_8  and  O_57 
REMARK    3  A    between atoms: C_11  and  O_53 
REMARK    4  A    between atoms: C_13  and  O_42 
REMARK    5  A    between atoms: C_19  and  O_20 
REMARK    6  A    between atoms: O_20  and  C_21 
REMARK    7  A    between atoms: C_21  and  C_23 
REMARK    8  A    between atoms: C_23  and  C_24 
REMARK    9  A    between atoms: C_23  and  O_40 
REMARK   10  A    between atoms: C_24  and  C_25 
REMARK   11  A    between atoms: C_24  and  N_31 
REMARK       I    between atoms: N_31  and  C_32 
REMARK   12  A    between atoms: C_32  and  C_34 
REMARK   13  A    between atoms: O_42  and  C_43 
REMARK   14  A    between atoms: C_43  and  C_45 
REMARK   15  A    between atoms: O_53  and  C_54 
REMARK   16  A    between atoms: O_57  and  C_58 
REMARK   17  A    between atoms: C_58  and  S_59 
REMARK   18  A    between atoms: O_62  and  C_63 
ROOT
HETATM    1  C   UNK N   1      28.562  18.510   6.301  0.00  0.00     0.046 C 
HETATM    2  C   UNK N   1      28.740  17.441   5.265  0.00  0.00    -0.048 C 
HETATM    3  C   UNK N   1      27.725  17.088   4.408  0.00  0.00    -0.028 C 
HETATM    4  C   UNK N   1      26.314  17.590   4.602  0.00  0.00     0.232 C 
HETATM    5  C   UNK N   1      25.225  16.529   4.238  0.00  0.00     0.171 C 
HETATM    6  O   UNK N   1      24.515  16.842   3.297  0.00  0.00    -0.294 OA
HETATM    7  C   UNK N   1      24.948  15.111   4.933  0.00  0.00     0.055 C 
HETATM    8  C   UNK N   1      23.436  14.819   4.646  0.00  0.00     0.141 C 
HETATM    9  C   UNK N   1      22.927  13.564   5.325  0.00  0.00     0.068 C 
HETATM   10  C   UNK N   1      23.557  12.318   4.733  0.00  0.00     0.161 A 
HETATM   11  C   UNK N   1      25.051  12.355   4.563  0.00  0.00     0.125 A 
HETATM   12  C   UNK N   1      25.820  13.732   4.604  0.00  0.00     0.076 C 
HETATM   13  C   UNK N   1      27.426  13.557   4.429  0.00  0.00     0.176 C 
HETATM   14  C   UNK N   1      28.177  14.824   4.773  0.00  0.00     0.098 C 
HETATM   15  C   UNK N   1      27.959  15.851   3.585  0.00  0.00     0.013 C 
HETATM   16  C   UNK N   1      26.929  15.489   2.502  0.00  0.00     0.023 C 
HETATM   17  C   UNK N   1      29.160  16.031   2.637  0.00  0.00     0.023 C 
HETATM   18  C   UNK N   1      29.674  14.968   5.131  0.00  0.00     0.078 C 
HETATM   19  C   UNK N   1      29.991  16.528   5.261  0.00  0.00     0.164 C 
HETATM   20  O   UNK N   1      27.585  15.170   6.003  0.00  0.00    -0.386 OA
HETATM   21  C   UNK N   1      24.704  12.008   3.129  0.00  0.00     0.210 A 
HETATM   22  O   UNK N   1      23.320  12.111   3.365  0.00  0.00    -0.380 OA
HETATM   23  C   UNK N   1      24.972  15.352   6.440  0.00  0.00     0.027 C 
HETATM   24  H   UNK N   1      27.247  15.389   6.884  0.00  0.00     0.210 HD
ENDROOT
BRANCH  13  25
HETATM   25  O   UNK N   1      27.986  12.420   4.998  0.00  0.00    -0.308 OA
BRANCH  25  26
HETATM   26  C   UNK N   1      28.923  11.584   4.470  0.00  0.00     0.293 C 
HETATM   27  O   UNK N   1      29.439  10.707   5.148  0.00  0.00    -0.259 OA
BRANCH  26  28
HETATM   28  C   UNK N   1      29.244  11.692   3.031  0.00  0.00     0.039 A 
HETATM   29  C   UNK N   1      28.392  11.144   2.059  0.00  0.00     0.017 A 
HETATM   30  C   UNK N   1      28.698  11.275   0.700  0.00  0.00     0.001 A 
HETATM   31  C   UNK N   1      29.852  11.957   0.304  0.00  0.00     0.000 A 
HETATM   32  C   UNK N   1      30.702  12.511   1.265  0.00  0.00     0.001 A 
HETATM   33  C   UNK N   1      30.398  12.381   2.623  0.00  0.00     0.017 A 
ENDBRANCH  26  28
ENDBRANCH  25  26
ENDBRANCH  13  25
BRANCH  19  34
HETATM   34  O   UNK N   1      30.954  16.799   6.204  0.00  0.00    -0.309 OA
BRANCH  34  35
HETATM   35  C   UNK N   1      32.202  17.233   5.905  0.00  0.00     0.290 C 
HETATM   36  O   UNK N   1      32.494  17.603   4.777  0.00  0.00    -0.262 OA
BRANCH  35  37
HETATM   37  C   UNK N   1      33.179  17.376   7.020  0.00  0.00     0.244 C 
BRANCH  37  38
HETATM   38  C   UNK N   1      33.417  15.965   7.593  0.00  0.00     0.156 C 
BRANCH  38  39
HETATM   39  C   UNK N   1      34.537  15.846   8.599  0.00  0.00    -0.033 A 
HETATM   40  C   UNK N   1      35.482  14.813   8.509  0.00  0.00     0.009 A 
HETATM   41  C   UNK N   1      36.403  14.619   9.534  0.00  0.00     0.001 A 
HETATM   42  C   UNK N   1      36.398  15.460  10.649  0.00  0.00     0.000 A 
HETATM   43  C   UNK N   1      35.481  16.507  10.733  0.00  0.00     0.001 A 
HETATM   44  C   UNK N   1      34.542  16.690   9.717  0.00  0.00     0.009 A 
ENDBRANCH  38  39
BRANCH  38  45
HETATM   45  N   UNK N   1      33.611  14.998   6.531  0.00  0.00    -0.345 N 
HETATM   46  C   UNK N   1      32.903  13.845   6.423  0.00  0.00     0.252 C 
HETATM   47  O   UNK N   1      32.010  13.585   7.224  0.00  0.00    -0.268 OA
HETATM   48  H   UNK N   1      34.296  15.188   5.849  0.00  0.00     0.163 HD
BRANCH  46  49
HETATM   49  C   UNK N   1      33.198  12.900   5.341  0.00  0.00     0.032 A 
HETATM   50  C   UNK N   1      33.823  13.345   4.166  0.00  0.00     0.017 A 
HETATM   51  C   UNK N   1      34.129  12.439   3.149  0.00  0.00     0.001 A 
HETATM   52  C   UNK N   1      33.805  11.088   3.296  0.00  0.00     0.000 A 
HETATM   53  C   UNK N   1      33.175  10.641   4.460  0.00  0.00     0.001 A 
HETATM   54  C   UNK N   1      32.876  11.544   5.481  0.00  0.00     0.017 A 
ENDBRANCH  46  49
ENDBRANCH  38  45
ENDBRANCH  37  38
BRANCH  37  55
HETATM   55  O   UNK N   1      34.372  17.885   6.501  0.00  0.00    -0.383 OA
HETATM   56  H   UNK N   1      34.509  18.843   6.448  0.00  0.00     0.210 HD
ENDBRANCH  37  55
ENDBRANCH  35  37
ENDBRANCH  34  35
ENDBRANCH  19  34
BRANCH  11  57
HETATM   57  O   UNK N   1      25.549  11.338   5.370  0.00  0.00    -0.305 OA
BRANCH  57  58
HETATM   58  C   UNK N   1      25.317   9.999   5.262  0.00  0.00     0.255 C 
HETATM   59  O   UNK N   1      24.361   9.473   5.810  0.00  0.00    -0.266 OA
HETATM   60  C   UNK N   1      26.246   9.163   4.448  0.00  0.00     0.126 C 
ENDBRANCH  57  58
ENDBRANCH  11  57
BRANCH   4  61
HETATM   61  O   UNK N   1      26.214  18.758   3.858  0.00  0.00    -0.304 OA
BRANCH  61  62
HETATM   62  C   UNK N   1      25.585  19.900   4.234  0.00  0.00     0.255 C 
HETATM   63  O   UNK N   1      24.501  20.212   3.765  0.00  0.00    -0.266 OA
HETATM   64  C   UNK N   1      26.240  20.796   5.228  0.00  0.00     0.126 C 
ENDBRANCH  61  62
ENDBRANCH   4  61
BRANCH   8  65
HETATM   65  O   UNK N   1      23.089  14.790   3.282  0.00  0.00    -0.375 OA
BRANCH  65  66
HETATM   66  C   UNK N   1      21.707  15.031   3.257  0.00  0.00     0.241 C 
BRANCH  66  67
HETATM   67  S   UNK N   1      21.143  15.429   1.573  0.00  0.00    -0.148 SA
HETATM   68  C   UNK N   1      22.166  14.128   0.837  0.00  0.00     0.092 C 
ENDBRANCH  66  67
ENDBRANCH  65  66
ENDBRANCH   8  65
TORSDOF 18
ENDMDL
