MODEL 1
REMARK VINA RESULT:      -7.7      0.000      0.000
REMARK  5 active torsions:
REMARK  status: ('A' for Active; 'I' for Inactive)
REMARK    1  A    between atoms: C_2  and  O_3 
REMARK    2  A    between atoms: C_2  and  C_4 
REMARK    3  A    between atoms: C_8  and  C_11 
REMARK    4  A    between atoms: C_24  and  N_23 
REMARK    5  A    between atoms: C_27  and  O_30 
ROOT
HETATM    1  C   UNK N   1      21.997  16.823   5.828  0.00  0.00     0.061 A 
HETATM    2  N   UNK N   1      22.983  17.613   5.338  0.00  0.00    -0.337 N 
ATOM      3  HN  UNK N   1      23.936  17.472   5.672  1.00  0.00     0.167 HD
HETATM    4  C   UNK N   1      22.750  18.583   4.419  0.00  0.00     0.155 A 
HETATM    5  C   UNK N   1      21.443  18.784   3.976  0.00  0.00     0.146 A 
HETATM    6  N   UNK N   1      20.435  18.020   4.481  0.00  0.00    -0.347 N 
ATOM      7  HN  UNK N   1      19.477  18.184   4.172  1.00  0.00     0.167 HD
HETATM    8  C   UNK N   1      20.684  17.037   5.393  0.00  0.00     0.120 A 
HETATM    9  N   UNK N   1      21.170  19.761   2.997  0.00  0.00    -0.364 N 
HETATM   10  C   UNK N   1      22.212  20.550   2.377  0.00  0.00     0.224 A 
HETATM   11  C   UNK N   1      23.602  20.292   2.920  0.00  0.00     0.243 A 
HETATM   12  O   UNK N   1      24.513  20.952   2.449  0.00  0.00    -0.271 OA
HETATM   13  N   UNK N   1      23.839  19.357   3.905  0.00  0.00    -0.294 N 
HETATM   14  H   UNK N   1      20.236  19.910   2.724  0.00  0.00     0.161 HD
ENDROOT
BRANCH   1  15
HETATM   15  C   UNK N   1      22.363  15.714   6.730  0.00  0.00     0.007 A 
HETATM   16  C   UNK N   1      23.618  15.095   6.682  0.00  0.00     0.102 A 
HETATM   17  N   UNK N   1      23.940  14.131   7.589  0.00  0.00    -0.366 N 
HETATM   18  C   UNK N   1      23.069  13.743   8.568  0.00  0.00     0.043 A 
ATOM     19  HN  UNK N   1      24.858  13.687   7.537  1.00  0.00     0.165 HD
HETATM   20  C   UNK N   1      21.802  14.331   8.633  0.00  0.00     0.029 A 
HETATM   21  C   UNK N   1      21.456  15.316   7.717  0.00  0.00     0.017 A 
BRANCH  18  22
HETATM   22  C   UNK N   1      23.452  12.696   9.585  0.00  0.00     0.092 C 
HETATM   23  C   UNK N   1      23.706  11.371   8.887  0.00  0.00     0.052 C 
HETATM   24  C   UNK N   1      22.361  12.480  10.622  0.00  0.00     0.052 C 
BRANCH  22  25
HETATM   25  O   UNK N   1      24.618  13.092  10.241  0.00  0.00    -0.384 OA
HETATM   26  H   UNK N   1      25.199  13.847  10.427  0.00  0.00     0.211 HD
ENDBRANCH  22  25
ENDBRANCH  18  22
ENDBRANCH   1  15
BRANCH  13  27
HETATM   27  C   UNK N   1      25.166  19.128   4.509  0.00  0.00     0.095 C 
HETATM   28  C   UNK N   1      25.940  20.327   5.057  0.00  0.00     0.028 C 
HETATM   29  C   UNK N   1      27.078  19.814   5.939  0.00  0.00     0.034 C 
HETATM   30  C   UNK N   1      27.999  18.853   5.178  0.00  0.00     0.120 C 
HETATM   31  C   UNK N   1      27.211  17.736   4.489  0.00  0.00     0.034 C 
HETATM   32  C   UNK N   1      26.100  18.312   3.616  0.00  0.00     0.028 C 
BRANCH  30  33
HETATM   33  O   UNK N   1      28.907  18.285   6.076  0.00  0.00    -0.391 OA
HETATM   34  C   UNK N   1      28.233  18.230   7.295  0.00  0.00     0.202 C 
ENDBRANCH  30  33
ENDBRANCH  13  27
TORSDOF 5
ENDMDL
MODEL 2
REMARK VINA RESULT:      -7.4      6.235      9.205
REMARK  5 active torsions:
REMARK  status: ('A' for Active; 'I' for Inactive)
REMARK    1  A    between atoms: C_2  and  O_3 
REMARK    2  A    between atoms: C_2  and  C_4 
REMARK    3  A    between atoms: C_8  and  C_11 
REMARK    4  A    between atoms: C_24  and  N_23 
REMARK    5  A    between atoms: C_27  and  O_30 
ROOT
HETATM    1  C   UNK N   1      31.103  17.261   8.257  0.00  0.00     0.061 A 
HETATM    2  N   UNK N   1      30.840  17.045   6.945  0.00  0.00    -0.337 N 
ATOM      3  HN  UNK N   1      31.558  16.611   6.366  1.00  0.00     0.167 HD
HETATM    4  C   UNK N   1      29.658  17.385   6.374  0.00  0.00     0.155 A 
HETATM    5  C   UNK N   1      28.683  17.994   7.165  0.00  0.00     0.146 A 
HETATM    6  N   UNK N   1      28.943  18.247   8.478  0.00  0.00    -0.347 N 
ATOM      7  HN  UNK N   1      28.237  18.713   9.048  1.00  0.00     0.167 HD
HETATM    8  C   UNK N   1      30.129  17.887   9.045  0.00  0.00     0.120 A 
HETATM    9  N   UNK N   1      27.431  18.329   6.612  0.00  0.00    -0.364 N 
HETATM   10  C   UNK N   1      27.079  18.020   5.244  0.00  0.00     0.224 A 
HETATM   11  C   UNK N   1      28.190  17.376   4.440  0.00  0.00     0.243 A 
HETATM   12  O   UNK N   1      27.953  17.120   3.271  0.00  0.00    -0.271 OA
HETATM   13  N   UNK N   1      29.420  17.092   4.993  0.00  0.00    -0.294 N 
HETATM   14  H   UNK N   1      26.771  18.790   7.179  0.00  0.00     0.161 HD
ENDROOT
BRANCH   1  15
HETATM   15  C   UNK N   1      32.367  16.747   8.818  0.00  0.00     0.007 A 
HETATM   16  C   UNK N   1      33.500  17.557   8.972  0.00  0.00     0.102 A 
HETATM   17  N   UNK N   1      34.618  17.060   9.571  0.00  0.00    -0.366 N 
HETATM   18  C   UNK N   1      34.675  15.778  10.042  0.00  0.00     0.043 A 
ATOM     19  HN  UNK N   1      35.436  17.662   9.671  1.00  0.00     0.165 HD
HETATM   20  C   UNK N   1      33.566  14.940   9.889  0.00  0.00     0.029 A 
HETATM   21  C   UNK N   1      32.417  15.429   9.281  0.00  0.00     0.017 A 
BRANCH  18  22
HETATM   22  C   UNK N   1      35.910  15.253  10.731  0.00  0.00     0.092 C 
HETATM   23  C   UNK N   1      36.544  14.160   9.887  0.00  0.00     0.052 C 
HETATM   24  C   UNK N   1      35.596  14.668  12.099  0.00  0.00     0.052 C 
BRANCH  22  25
HETATM   25  O   UNK N   1      36.829  16.291  10.890  0.00  0.00    -0.384 OA
HETATM   26  H   UNK N   1      37.111  17.009  11.478  0.00  0.00     0.211 HD
ENDBRANCH  22  25
ENDBRANCH  18  22
ENDBRANCH   1  15
BRANCH  13  27
HETATM   27  C   UNK N   1      30.550  16.533   4.225  0.00  0.00     0.095 C 
HETATM   28  C   UNK N   1      31.013  15.108   4.532  0.00  0.00     0.028 C 
HETATM   29  C   UNK N   1      31.917  14.631   3.396  0.00  0.00     0.034 C 
HETATM   30  C   UNK N   1      33.108  15.572   3.183  0.00  0.00     0.120 C 
HETATM   31  C   UNK N   1      32.662  17.030   3.036  0.00  0.00     0.034 C 
HETATM   32  C   UNK N   1      31.774  17.448   4.205  0.00  0.00     0.028 C 
BRANCH  30  33
HETATM   33  O   UNK N   1      33.794  15.186   2.029  0.00  0.00    -0.391 OA
HETATM   34  C   UNK N   1      34.468  14.016   2.377  0.00  0.00     0.202 C 
ENDBRANCH  30  33
ENDBRANCH  13  27
TORSDOF 5
ENDMDL
MODEL 3
REMARK VINA RESULT:      -7.2     10.605     15.186
REMARK  5 active torsions:
REMARK  status: ('A' for Active; 'I' for Inactive)
REMARK    1  A    between atoms: C_2  and  O_3 
REMARK    2  A    between atoms: C_2  and  C_4 
REMARK    3  A    between atoms: C_8  and  C_11 
REMARK    4  A    between atoms: C_24  and  N_23 
REMARK    5  A    between atoms: C_27  and  O_30 
ROOT
HETATM    1  C   UNK N   1      35.638  14.224  12.332  0.00  0.00     0.061 A 
HETATM    2  N   UNK N   1      35.483  12.903  12.074  0.00  0.00    -0.337 N 
ATOM      3  HN  UNK N   1      34.976  12.623  11.234  1.00  0.00     0.167 HD
HETATM    4  C   UNK N   1      35.977  11.938  12.890  0.00  0.00     0.155 A 
HETATM    5  C   UNK N   1      36.656  12.324  14.046  0.00  0.00     0.146 A 
HETATM    6  N   UNK N   1      36.793  13.648  14.337  0.00  0.00    -0.347 N 
ATOM      7  HN  UNK N   1      37.269  13.926  15.195  1.00  0.00     0.167 HD
HETATM    8  C   UNK N   1      36.306  14.608  13.501  0.00  0.00     0.120 A 
HETATM    9  N   UNK N   1      37.211  11.349  14.899  0.00  0.00    -0.364 N 
HETATM   10  C   UNK N   1      37.154   9.935  14.602  0.00  0.00     0.224 A 
HETATM   11  C   UNK N   1      36.388   9.589  13.342  0.00  0.00     0.243 A 
HETATM   12  O   UNK N   1      36.288   8.406  13.060  0.00  0.00    -0.271 OA
HETATM   13  N   UNK N   1      35.821  10.558  12.543  0.00  0.00    -0.294 N 
HETATM   14  H   UNK N   1      37.655  11.642  15.728  0.00  0.00     0.161 HD
ENDROOT
BRANCH   1  15
HETATM   15  C   UNK N   1      35.175  15.199  11.326  0.00  0.00     0.007 A 
HETATM   16  C   UNK N   1      35.702  16.494  11.244  0.00  0.00     0.102 A 
HETATM   17  N   UNK N   1      35.303  17.332  10.247  0.00  0.00    -0.366 N 
HETATM   18  C   UNK N   1      34.395  16.945   9.300  0.00  0.00     0.043 A 
ATOM     19  HN  UNK N   1      35.693  18.274  10.204  1.00  0.00     0.165 HD
HETATM   20  C   UNK N   1      33.840  15.664   9.364  0.00  0.00     0.029 A 
HETATM   21  C   UNK N   1      34.234  14.796  10.373  0.00  0.00     0.017 A 
BRANCH  18  22
HETATM   22  C   UNK N   1      33.987  17.874   8.183  0.00  0.00     0.092 C 
HETATM   23  C   UNK N   1      32.516  18.228   8.321  0.00  0.00     0.052 C 
HETATM   24  C   UNK N   1      34.193  17.246   6.814  0.00  0.00     0.052 C 
BRANCH  22  25
HETATM   25  O   UNK N   1      34.742  19.045   8.255  0.00  0.00    -0.384 OA
HETATM   26  H   UNK N   1      34.814  19.910   8.687  0.00  0.00     0.211 HD
ENDBRANCH  22  25
ENDBRANCH  18  22
ENDBRANCH   1  15
BRANCH  13  27
HETATM   27  C   UNK N   1      35.007  10.258  11.349  0.00  0.00     0.095 C 
HETATM   28  C   UNK N   1      33.641   9.597  11.539  0.00  0.00     0.028 C 
HETATM   29  C   UNK N   1      32.852   9.721  10.237  0.00  0.00     0.034 C 
HETATM   30  C   UNK N   1      33.608   9.112   9.051  0.00  0.00     0.120 C 
HETATM   31  C   UNK N   1      35.037   9.652   8.950  0.00  0.00     0.034 C 
HETATM   32  C   UNK N   1      35.776   9.488  10.276  0.00  0.00     0.028 C 
BRANCH  30  33
HETATM   33  O   UNK N   1      32.923   9.411   7.870  0.00  0.00    -0.391 OA
HETATM   34  C   UNK N   1      33.307  10.711   7.541  0.00  0.00     0.202 C 
ENDBRANCH  30  33
ENDBRANCH  13  27
TORSDOF 5
ENDMDL
MODEL 4
REMARK VINA RESULT:      -6.9      1.519      1.992
REMARK  5 active torsions:
REMARK  status: ('A' for Active; 'I' for Inactive)
REMARK    1  A    between atoms: C_2  and  O_3 
REMARK    2  A    between atoms: C_2  and  C_4 
REMARK    3  A    between atoms: C_8  and  C_11 
REMARK    4  A    between atoms: C_24  and  N_23 
REMARK    5  A    between atoms: C_27  and  O_30 
ROOT
HETATM    1  C   UNK N   1      22.724  17.240   5.658  0.00  0.00     0.061 A 
HETATM    2  N   UNK N   1      23.951  17.774   5.448  0.00  0.00    -0.337 N 
ATOM      3  HN  UNK N   1      24.739  17.424   5.992  1.00  0.00     0.167 HD
HETATM    4  C   UNK N   1      24.172  18.758   4.540  0.00  0.00     0.155 A 
HETATM    5  C   UNK N   1      23.089  19.246   3.808  0.00  0.00     0.146 A 
HETATM    6  N   UNK N   1      21.843  18.742   4.029  0.00  0.00    -0.347 N 
ATOM      7  HN  UNK N   1      21.050  19.117   3.508  1.00  0.00     0.167 HD
HETATM    8  C   UNK N   1      21.637  17.743   4.933  0.00  0.00     0.120 A 
HETATM    9  N   UNK N   1      23.288  20.244   2.832  0.00  0.00    -0.364 N 
HETATM   10  C   UNK N   1      24.598  20.764   2.510  0.00  0.00     0.224 A 
HETATM   11  C   UNK N   1      25.722  20.201   3.355  0.00  0.00     0.243 A 
HETATM   12  O   UNK N   1      26.845  20.627   3.140  0.00  0.00    -0.271 OA
HETATM   13  N   UNK N   1      25.498  19.253   4.329  0.00  0.00    -0.294 N 
HETATM   14  H   UNK N   1      22.506  20.599   2.352  0.00  0.00     0.161 HD
ENDROOT
BRANCH   1  15
HETATM   15  C   UNK N   1      22.602  16.091   6.576  0.00  0.00     0.007 A 
HETATM   16  C   UNK N   1      21.443  15.854   7.326  0.00  0.00     0.102 A 
HETATM   17  N   UNK N   1      21.345  14.735   8.097  0.00  0.00    -0.366 N 
HETATM   18  C   UNK N   1      22.353  13.813   8.161  0.00  0.00     0.043 A 
ATOM     19  HN  UNK N   1      20.496  14.580   8.640  1.00  0.00     0.165 HD
HETATM   20  C   UNK N   1      23.528  14.028   7.436  0.00  0.00     0.029 A 
HETATM   21  C   UNK N   1      23.646  15.163   6.644  0.00  0.00     0.017 A 
BRANCH  18  22
HETATM   22  C   UNK N   1      22.216  12.563   8.995  0.00  0.00     0.092 C 
HETATM   23  C   UNK N   1      21.203  12.793  10.103  0.00  0.00     0.052 C 
HETATM   24  C   UNK N   1      23.533  12.158   9.637  0.00  0.00     0.052 C 
BRANCH  22  25
HETATM   25  O   UNK N   1      21.772  11.514   8.188  0.00  0.00    -0.384 OA
HETATM   26  H   UNK N   1      22.048  10.712   7.718  0.00  0.00     0.211 HD
ENDBRANCH  22  25
ENDBRANCH  18  22
ENDBRANCH   1  15
BRANCH  13  27
HETATM   27  C   UNK N   1      26.553  18.734   5.221  0.00  0.00     0.095 C 
HETATM   28  C   UNK N   1      27.366  19.728   6.053  0.00  0.00     0.028 C 
HETATM   29  C   UNK N   1      28.117  18.959   7.139  0.00  0.00     0.034 C 
HETATM   30  C   UNK N   1      29.011  17.863   6.546  0.00  0.00     0.120 C 
HETATM   31  C   UNK N   1      28.238  16.958   5.583  0.00  0.00     0.034 C 
HETATM   32  C   UNK N   1      27.522  17.783   4.517  0.00  0.00     0.028 C 
BRANCH  30  33
HETATM   33  O   UNK N   1      29.530  17.086   7.585  0.00  0.00    -0.391 OA
HETATM   34  C   UNK N   1      29.194  17.765   8.756  0.00  0.00     0.202 C 
ENDBRANCH  30  33
ENDBRANCH  13  27
TORSDOF 5
ENDMDL
MODEL 5
REMARK VINA RESULT:      -6.9      5.519      9.105
REMARK  5 active torsions:
REMARK  status: ('A' for Active; 'I' for Inactive)
REMARK    1  A    between atoms: C_2  and  O_3 
REMARK    2  A    between atoms: C_2  and  C_4 
REMARK    3  A    between atoms: C_8  and  C_11 
REMARK    4  A    between atoms: C_24  and  N_23 
REMARK    5  A    between atoms: C_27  and  O_30 
ROOT
HETATM    1  C   UNK N   1      29.768  17.518   7.314  0.00  0.00     0.061 A 
HETATM    2  N   UNK N   1      30.823  16.859   6.777  0.00  0.00    -0.337 N 
ATOM      3  HN  UNK N   1      30.687  16.338   5.911  1.00  0.00     0.167 HD
HETATM    4  C   UNK N   1      32.053  16.864   7.349  0.00  0.00     0.155 A 
HETATM    5  C   UNK N   1      32.232  17.564   8.543  0.00  0.00     0.146 A 
HETATM    6  N   UNK N   1      31.174  18.207   9.112  0.00  0.00    -0.347 N 
ATOM      7  HN  UNK N   1      31.303  18.699   9.997  1.00  0.00     0.167 HD
HETATM    8  C   UNK N   1      29.947  18.207   8.520  0.00  0.00     0.120 A 
HETATM    9  N   UNK N   1      33.504  17.619   9.147  0.00  0.00    -0.364 N 
HETATM   10  C   UNK N   1      34.673  17.013   8.549  0.00  0.00     0.224 A 
HETATM   11  C   UNK N   1      34.401  16.257   7.265  0.00  0.00     0.243 A 
HETATM   12  O   UNK N   1      35.351  15.704   6.735  0.00  0.00    -0.271 OA
HETATM   13  N   UNK N   1      33.141  16.185   6.713  0.00  0.00    -0.294 N 
HETATM   14  H   UNK N   1      33.600  18.089  10.007  0.00  0.00     0.161 HD
ENDROOT
BRANCH   1  15
HETATM   15  C   UNK N   1      28.501  17.558   6.558  0.00  0.00     0.007 A 
HETATM   16  C   UNK N   1      27.450  16.669   6.815  0.00  0.00     0.102 A 
HETATM   17  N   UNK N   1      26.269  16.796   6.148  0.00  0.00    -0.366 N 
HETATM   18  C   UNK N   1      26.066  17.783   5.224  0.00  0.00     0.043 A 
ATOM     19  HN  UNK N   1      25.515  16.138   6.344  1.00  0.00     0.165 HD
HETATM   20  C   UNK N   1      27.100  18.677   4.934  0.00  0.00     0.029 A 
HETATM   21  C   UNK N   1      28.312  18.563   5.604  0.00  0.00     0.017 A 
BRANCH  18  22
HETATM   22  C   UNK N   1      24.740  17.931   4.517  0.00  0.00     0.092 C 
HETATM   23  C   UNK N   1      24.457  16.687   3.692  0.00  0.00     0.052 C 
HETATM   24  C   UNK N   1      24.722  19.130   3.583  0.00  0.00     0.052 C 
BRANCH  22  25
HETATM   25  O   UNK N   1      23.726  18.087   5.463  0.00  0.00    -0.384 OA
HETATM   26  H   UNK N   1      23.379  18.670   6.155  0.00  0.00     0.211 HD
ENDBRANCH  22  25
ENDBRANCH  18  22
ENDBRANCH   1  15
BRANCH  13  27
HETATM   27  C   UNK N   1      32.822  15.399   5.506  0.00  0.00     0.095 C 
HETATM   28  C   UNK N   1      33.078  13.892   5.522  0.00  0.00     0.028 C 
HETATM   29  C   UNK N   1      32.348  13.258   4.338  0.00  0.00     0.034 C 
HETATM   30  C   UNK N   1      32.776  13.883   3.005  0.00  0.00     0.120 C 
HETATM   31  C   UNK N   1      32.676  15.411   3.035  0.00  0.00     0.034 C 
HETATM   32  C   UNK N   1      33.433  15.982   4.231  0.00  0.00     0.028 C 
BRANCH  30  33
HETATM   33  O   UNK N   1      31.955  13.392   1.987  0.00  0.00    -0.391 OA
HETATM   34  C   UNK N   1      30.848  12.847   2.637  0.00  0.00     0.202 C 
ENDBRANCH  30  33
ENDBRANCH  13  27
TORSDOF 5
ENDMDL
MODEL 6
REMARK VINA RESULT:      -6.9      2.589      6.258
REMARK  5 active torsions:
REMARK  status: ('A' for Active; 'I' for Inactive)
REMARK    1  A    between atoms: C_2  and  O_3 
REMARK    2  A    between atoms: C_2  and  C_4 
REMARK    3  A    between atoms: C_8  and  C_11 
REMARK    4  A    between atoms: C_24  and  N_23 
REMARK    5  A    between atoms: C_27  and  O_30 
ROOT
HETATM    1  C   UNK N   1      26.869  18.843   5.110  0.00  0.00     0.061 A 
HETATM    2  N   UNK N   1      25.679  18.200   5.032  0.00  0.00    -0.337 N 
ATOM      3  HN  UNK N   1      25.582  17.291   5.484  1.00  0.00     0.167 HD
HETATM    4  C   UNK N   1      24.612  18.719   4.374  0.00  0.00     0.155 A 
HETATM    5  C   UNK N   1      24.754  19.954   3.741  0.00  0.00     0.146 A 
HETATM    6  N   UNK N   1      25.952  20.600   3.784  0.00  0.00    -0.347 N 
ATOM      7  HN  UNK N   1      26.059  21.493   3.301  1.00  0.00     0.167 HD
HETATM    8  C   UNK N   1      27.012  20.076   4.461  0.00  0.00     0.120 A 
HETATM    9  N   UNK N   1      23.656  20.538   3.077  0.00  0.00    -0.364 N 
HETATM   10  C   UNK N   1      22.345  19.929   3.061  0.00  0.00     0.224 A 
HETATM   11  C   UNK N   1      22.270  18.582   3.751  0.00  0.00     0.243 A 
HETATM   12  O   UNK N   1      21.191  18.013   3.743  0.00  0.00    -0.271 OA
HETATM   13  N   UNK N   1      23.367  18.013   4.362  0.00  0.00    -0.294 N 
HETATM   14  H   UNK N   1      23.787  21.394   2.608  0.00  0.00     0.161 HD
ENDROOT
BRANCH   1  15
HETATM   15  C   UNK N   1      27.933  18.261   5.950  0.00  0.00     0.007 A 
HETATM   16  C   UNK N   1      28.786  17.253   5.482  0.00  0.00     0.102 A 
HETATM   17  N   UNK N   1      29.806  16.804   6.266  0.00  0.00    -0.366 N 
HETATM   18  C   UNK N   1      30.037  17.316   7.512  0.00  0.00     0.043 A 
ATOM     19  HN  UNK N   1      30.416  16.066   5.912  1.00  0.00     0.165 HD
HETATM   20  C   UNK N   1      29.195  18.312   8.013  0.00  0.00     0.029 A 
HETATM   21  C   UNK N   1      28.149  18.782   7.229  0.00  0.00     0.017 A 
BRANCH  18  22
HETATM   22  C   UNK N   1      31.192  16.830   8.355  0.00  0.00     0.092 C 
HETATM   23  C   UNK N   1      32.271  17.897   8.412  0.00  0.00     0.052 C 
HETATM   24  C   UNK N   1      31.814  15.561   7.794  0.00  0.00     0.052 C 
BRANCH  22  25
HETATM   25  O   UNK N   1      30.743  16.571   9.650  0.00  0.00    -0.384 OA
HETATM   26  H   UNK N   1      29.966  16.340  10.182  0.00  0.00     0.211 HD
ENDBRANCH  22  25
ENDBRANCH  18  22
ENDBRANCH   1  15
BRANCH  13  27
HETATM   27  C   UNK N   1      23.353  16.674   4.981  0.00  0.00     0.095 C 
HETATM   28  C   UNK N   1      23.246  15.447   4.074  0.00  0.00     0.028 C 
HETATM   29  C   UNK N   1      23.614  14.205   4.884  0.00  0.00     0.034 C 
HETATM   30  C   UNK N   1      22.736  14.057   6.131  0.00  0.00     0.120 C 
HETATM   31  C   UNK N   1      22.709  15.341   6.964  0.00  0.00     0.034 C 
HETATM   32  C   UNK N   1      22.323  16.541   6.103  0.00  0.00     0.028 C 
BRANCH  30  33
HETATM   33  O   UNK N   1      23.231  13.013   6.917  0.00  0.00    -0.391 OA
HETATM   34  C   UNK N   1      23.168  13.480   8.230  0.00  0.00     0.202 C 
ENDBRANCH  30  33
ENDBRANCH  13  27
TORSDOF 5
ENDMDL
MODEL 7
REMARK VINA RESULT:      -6.8      2.242      5.962
REMARK  5 active torsions:
REMARK  status: ('A' for Active; 'I' for Inactive)
REMARK    1  A    between atoms: C_2  and  O_3 
REMARK    2  A    between atoms: C_2  and  C_4 
REMARK    3  A    between atoms: C_8  and  C_11 
REMARK    4  A    between atoms: C_24  and  N_23 
REMARK    5  A    between atoms: C_27  and  O_30 
ROOT
HETATM    1  C   UNK N   1      25.439  19.311   4.614  0.00  0.00     0.061 A 
HETATM    2  N   UNK N   1      24.272  18.624   4.669  0.00  0.00    -0.337 N 
ATOM      3  HN  UNK N   1      24.204  17.822   5.295  1.00  0.00     0.167 HD
HETATM    4  C   UNK N   1      23.191  18.963   3.922  0.00  0.00     0.155 A 
HETATM    5  C   UNK N   1      23.293  20.051   3.054  0.00  0.00     0.146 A 
HETATM    6  N   UNK N   1      24.468  20.733   2.964  0.00  0.00    -0.347 N 
ATOM      7  HN  UNK N   1      24.546  21.514   2.311  1.00  0.00     0.167 HD
HETATM    8  C   UNK N   1      25.542  20.393   3.730  0.00  0.00     0.120 A 
HETATM    9  N   UNK N   1      22.179  20.451   2.289  0.00  0.00    -0.364 N 
HETATM   10  C   UNK N   1      20.890  19.805   2.398  0.00  0.00     0.224 A 
HETATM   11  C   UNK N   1      20.858  18.622   3.345  0.00  0.00     0.243 A 
HETATM   12  O   UNK N   1      19.800  18.026   3.453  0.00  0.00    -0.271 OA
HETATM   13  N   UNK N   1      21.971  18.226   4.055  0.00  0.00    -0.294 N 
HETATM   14  H   UNK N   1      22.282  21.198   1.657  0.00  0.00     0.161 HD
ENDROOT
BRANCH   1  15
HETATM   15  C   UNK N   1      26.518  18.947   5.551  0.00  0.00     0.007 A 
HETATM   16  C   UNK N   1      27.135  19.890   6.383  0.00  0.00     0.102 A 
HETATM   17  N   UNK N   1      28.070  19.492   7.291  0.00  0.00    -0.366 N 
HETATM   18  C   UNK N   1      28.429  18.180   7.427  0.00  0.00     0.043 A 
ATOM     19  HN  UNK N   1      28.513  20.192   7.886  1.00  0.00     0.165 HD
HETATM   20  C   UNK N   1      27.843  17.217   6.602  0.00  0.00     0.029 A 
HETATM   21  C   UNK N   1      26.888  17.603   5.670  0.00  0.00     0.017 A 
BRANCH  18  22
HETATM   22  C   UNK N   1      29.443  17.751   8.460  0.00  0.00     0.092 C 
HETATM   23  C   UNK N   1      28.729  17.190   9.678  0.00  0.00     0.052 C 
HETATM   24  C   UNK N   1      30.316  18.909   8.918  0.00  0.00     0.052 C 
BRANCH  22  25
HETATM   25  O   UNK N   1      30.264  16.760   7.920  0.00  0.00    -0.384 OA
HETATM   26  H   UNK N   1      30.873  16.038   8.138  0.00  0.00     0.211 HD
ENDBRANCH  22  25
ENDBRANCH  18  22
ENDBRANCH   1  15
BRANCH  13  27
HETATM   27  C   UNK N   1      22.000  17.038   4.930  0.00  0.00     0.095 C 
HETATM   28  C   UNK N   1      21.799  15.659   4.302  0.00  0.00     0.028 C 
HETATM   29  C   UNK N   1      22.227  14.594   5.311  0.00  0.00     0.034 C 
HETATM   30  C   UNK N   1      21.465  14.723   6.634  0.00  0.00     0.120 C 
HETATM   31  C   UNK N   1      21.527  16.148   7.190  0.00  0.00     0.034 C 
HETATM   32  C   UNK N   1      21.076  17.161   6.141  0.00  0.00     0.028 C 
BRANCH  30  33
HETATM   33  O   UNK N   1      22.020  13.844   7.568  0.00  0.00    -0.391 OA
HETATM   34  C   UNK N   1      23.289  13.539   7.077  0.00  0.00     0.202 C 
ENDBRANCH  30  33
ENDBRANCH  13  27
TORSDOF 5
ENDMDL
MODEL 8
REMARK VINA RESULT:      -6.7     14.045     18.409
REMARK  5 active torsions:
REMARK  status: ('A' for Active; 'I' for Inactive)
REMARK    1  A    between atoms: C_2  and  O_3 
REMARK    2  A    between atoms: C_2  and  C_4 
REMARK    3  A    between atoms: C_8  and  C_11 
REMARK    4  A    between atoms: C_24  and  N_23 
REMARK    5  A    between atoms: C_27  and  O_30 
ROOT
HETATM    1  C   UNK N   1      35.542  12.797  16.472  0.00  0.00     0.061 A 
HETATM    2  N   UNK N   1      35.840  11.495  16.702  0.00  0.00    -0.337 N 
ATOM      3  HN  UNK N   1      36.096  10.904  15.911  1.00  0.00     0.167 HD
HETATM    4  C   UNK N   1      35.811  10.949  17.943  0.00  0.00     0.155 A 
HETATM    5  C   UNK N   1      35.445  11.757  19.020  0.00  0.00     0.146 A 
HETATM    6  N   UNK N   1      35.111  13.060  18.803  0.00  0.00    -0.347 N 
ATOM      7  HN  UNK N   1      34.821  13.641  19.589  1.00  0.00     0.167 HD
HETATM    8  C   UNK N   1      35.159  13.601  17.553  0.00  0.00     0.120 A 
HETATM    9  N   UNK N   1      35.437  11.231  20.328  0.00  0.00    -0.364 N 
HETATM   10  C   UNK N   1      35.848   9.877  20.622  0.00  0.00     0.224 A 
HETATM   11  C   UNK N   1      36.216   9.054  19.404  0.00  0.00     0.243 A 
HETATM   12  O   UNK N   1      36.545   7.895  19.596  0.00  0.00    -0.271 OA
HETATM   13  N   UNK N   1      36.180   9.579  18.131  0.00  0.00    -0.294 N 
HETATM   14  H   UNK N   1      35.141  11.808  21.068  0.00  0.00     0.161 HD
ENDROOT
BRANCH   1  15
HETATM   15  C   UNK N   1      35.720  13.332  15.108  0.00  0.00     0.007 A 
HETATM   16  C   UNK N   1      36.617  14.369  14.825  0.00  0.00     0.102 A 
HETATM   17  N   UNK N   1      36.808  14.775  13.539  0.00  0.00    -0.366 N 
HETATM   18  C   UNK N   1      36.148  14.191  12.493  0.00  0.00     0.043 A 
ATOM     19  HN  UNK N   1      37.462  15.535  13.350  1.00  0.00     0.165 HD
HETATM   20  C   UNK N   1      35.234  13.164  12.745  0.00  0.00     0.029 A 
HETATM   21  C   UNK N   1      35.026  12.737  14.050  0.00  0.00     0.017 A 
BRANCH  18  22
HETATM   22  C   UNK N   1      36.394  14.630  11.070  0.00  0.00     0.092 C 
HETATM   23  C   UNK N   1      35.089  14.605  10.292  0.00  0.00     0.052 C 
HETATM   24  C   UNK N   1      37.385  13.725  10.357  0.00  0.00     0.052 C 
BRANCH  22  25
HETATM   25  O   UNK N   1      36.897  15.932  11.068  0.00  0.00    -0.384 OA
HETATM   26  H   UNK N   1      36.687  16.857  11.268  0.00  0.00     0.211 HD
ENDBRANCH  22  25
ENDBRANCH  18  22
ENDBRANCH   1  15
BRANCH  13  27
HETATM   27  C   UNK N   1      36.460   8.791  16.915  0.00  0.00     0.095 C 
HETATM   28  C   UNK N   1      35.658   7.512  16.668  0.00  0.00     0.028 C 
HETATM   29  C   UNK N   1      35.855   7.084  15.214  0.00  0.00     0.034 C 
HETATM   30  C   UNK N   1      37.337   6.889  14.874  0.00  0.00     0.120 C 
HETATM   31  C   UNK N   1      38.176   8.107  15.269  0.00  0.00     0.034 C 
HETATM   32  C   UNK N   1      37.945   8.476  16.731  0.00  0.00     0.028 C 
BRANCH  30  33
HETATM   33  O   UNK N   1      37.465   6.673  13.499  0.00  0.00    -0.391 OA
HETATM   34  C   UNK N   1      37.034   7.856  12.899  0.00  0.00     0.202 C 
ENDBRANCH  30  33
ENDBRANCH  13  27
TORSDOF 5
ENDMDL
MODEL 9
REMARK VINA RESULT:      -6.7      3.755      7.782
REMARK  5 active torsions:
REMARK  status: ('A' for Active; 'I' for Inactive)
REMARK    1  A    between atoms: C_2  and  O_3 
REMARK    2  A    between atoms: C_2  and  C_4 
REMARK    3  A    between atoms: C_8  and  C_11 
REMARK    4  A    between atoms: C_24  and  N_23 
REMARK    5  A    between atoms: C_27  and  O_30 
ROOT
HETATM    1  C   UNK N   1      26.260  18.850   3.963  0.00  0.00     0.061 A 
HETATM    2  N   UNK N   1      26.691  17.567   3.899  0.00  0.00    -0.337 N 
ATOM      3  HN  UNK N   1      26.013  16.832   3.700  1.00  0.00     0.167 HD
HETATM    4  C   UNK N   1      27.989  17.224   4.090  0.00  0.00     0.155 A 
HETATM    5  C   UNK N   1      28.911  18.231   4.379  0.00  0.00     0.146 A 
HETATM    6  N   UNK N   1      28.489  19.523   4.477  0.00  0.00    -0.347 N 
ATOM      7  HN  UNK N   1      29.162  20.254   4.710  1.00  0.00     0.167 HD
HETATM    8  C   UNK N   1      27.185  19.857   4.267  0.00  0.00     0.120 A 
HETATM    9  N   UNK N   1      30.274  17.915   4.550  0.00  0.00    -0.364 N 
HETATM   10  C   UNK N   1      30.785  16.571   4.388  0.00  0.00     0.224 A 
HETATM   11  C   UNK N   1      29.726  15.529   4.094  0.00  0.00     0.243 A 
HETATM   12  O   UNK N   1      30.102  14.374   3.974  0.00  0.00    -0.271 OA
HETATM   13  N   UNK N   1      28.393  15.857   3.968  0.00  0.00    -0.294 N 
HETATM   14  H   UNK N   1      30.901  18.635   4.787  0.00  0.00     0.161 HD
ENDROOT
BRANCH   1  15
HETATM   15  C   UNK N   1      24.855  19.142   3.619  0.00  0.00     0.007 A 
HETATM   16  C   UNK N   1      23.803  18.299   4.001  0.00  0.00     0.102 A 
HETATM   17  N   UNK N   1      22.515  18.651   3.733  0.00  0.00    -0.366 N 
HETATM   18  C   UNK N   1      22.204  19.823   3.099  0.00  0.00     0.043 A 
ATOM     19  HN  UNK N   1      21.760  18.024   4.013  1.00  0.00     0.165 HD
HETATM   20  C   UNK N   1      23.232  20.677   2.692  0.00  0.00     0.029 A 
HETATM   21  C   UNK N   1      24.552  20.336   2.957  0.00  0.00     0.017 A 
BRANCH  18  22
HETATM   22  C   UNK N   1      20.770  20.213   2.838  0.00  0.00     0.092 C 
HETATM   23  C   UNK N   1      19.895  18.972   2.819  0.00  0.00     0.052 C 
HETATM   24  C   UNK N   1      20.605  20.925   1.505  0.00  0.00     0.052 C 
BRANCH  22  25
HETATM   25  O   UNK N   1      20.329  21.062   3.854  0.00  0.00    -0.384 OA
HETATM   26  H   UNK N   1      19.777  21.835   4.049  0.00  0.00     0.211 HD
ENDBRANCH  22  25
ENDBRANCH  18  22
ENDBRANCH   1  15
BRANCH  13  27
HETATM   27  C   UNK N   1      27.325  14.861   3.754  0.00  0.00     0.095 C 
HETATM   28  C   UNK N   1      27.157  13.733   4.772  0.00  0.00     0.028 C 
HETATM   29  C   UNK N   1      25.800  13.069   4.548  0.00  0.00     0.034 C 
HETATM   30  C   UNK N   1      25.648  12.553   3.112  0.00  0.00     0.120 C 
HETATM   31  C   UNK N   1      25.973  13.637   2.081  0.00  0.00     0.034 C 
HETATM   32  C   UNK N   1      27.343  14.252   2.352  0.00  0.00     0.028 C 
BRANCH  30  33
HETATM   33  O   UNK N   1      24.334  12.119   2.920  0.00  0.00    -0.391 OA
HETATM   34  C   UNK N   1      24.440  10.953   2.161  0.00  0.00     0.202 C 
ENDBRANCH  30  33
ENDBRANCH  13  27
TORSDOF 5
ENDMDL
