MODEL 1
REMARK VINA RESULT:      -7.0      0.000      0.000
REMARK  9 active torsions:
REMARK  status: ('A' for Active; 'I' for Inactive)
REMARK    1  A    between atoms: O_2  and  C_3 
REMARK    2  A    between atoms: C_5  and  N_30 
REMARK    3  A    between atoms: C_8  and  C_9 
REMARK       I    between atoms: C_9  and  N_11 
REMARK    4  A    between atoms: N_11  and  C_12 
REMARK    5  A    between atoms: C_12  and  C_13 
REMARK    6  A    between atoms: N_16  and  C_19 
REMARK    7  A    between atoms: C_19  and  C_20 
REMARK    8  A    between atoms: C_20  and  C_21 
REMARK    9  A    between atoms: C_21  and  N_22 
ROOT
HETATM    1  C   UNK N   1      34.316  18.098   8.261  0.00  0.00     0.127 C 
ENDROOT
BRANCH   1   2
HETATM    2  N   UNK N   1      34.414  16.925   9.081  0.00  0.00    -0.356 N 
HETATM    3  C   UNK N   1      35.216  16.729  10.150  0.00  0.00     0.254 C 
HETATM    4  O   UNK N   1      35.937  17.628  10.546  0.00  0.00    -0.268 OA
HETATM    5  H   UNK N   1      33.826  16.175   8.836  0.00  0.00     0.162 HD
BRANCH   3   6
HETATM    6  C   UNK N   1      35.227  15.348  10.731  0.00  0.00     0.067 A 
HETATM    7  C   UNK N   1      35.782  15.284  12.025  0.00  0.00     0.046 A 
HETATM    8  C   UNK N   1      35.832  14.115  12.762  0.00  0.00     0.061 A 
HETATM    9  C   UNK N   1      35.318  12.943  12.219  0.00  0.00     0.050 A 
HETATM   10 Cl   UNK N   1      36.529  14.159  14.373  0.00  0.00    -0.082 Cl
HETATM   11  C   UNK N   1      34.766  12.957  10.936  0.00  0.00     0.068 A 
HETATM   12  C   UNK N   1      34.711  14.131  10.163  0.00  0.00     0.086 A 
BRANCH   9  13
HETATM   13  N   UNK N   1      35.351  11.740  12.953  0.00  0.00    -0.398 N 
HETATM   14  H   UNK N   1      34.795  10.977  12.673  0.00  0.00     0.156 HD
HETATM   15  H   UNK N   1      35.929  11.663  13.746  0.00  0.00     0.156 HD
ENDBRANCH   9  13
BRANCH  12  16
HETATM   16  O   UNK N   1      34.167  13.991   8.924  0.00  0.00    -0.355 OA
HETATM   17  C   UNK N   1      32.861  13.725   8.608  0.00  0.00     0.210 C 
ENDBRANCH  12  16
ENDBRANCH   3   6
ENDBRANCH   1   2
BRANCH   1  18
HETATM   18  C   UNK N   1      33.062  17.888   7.422  0.00  0.00     0.007 C 
HETATM   19  C   UNK N   1      31.905  17.371   8.283  0.00  0.00     0.036 C 
HETATM   20  C   UNK N   1      30.652  17.296   7.427  0.00  0.00     0.273 C 
HETATM   21  N   UNK N   1      30.875  16.378   6.316  0.00  0.00     0.088 N 
HETATM   22  C   UNK N   1      31.943  16.912   5.463  0.00  0.00     0.273 C 
HETATM   23  C   UNK N   1      33.267  16.970   6.231  0.00  0.00     0.036 C 
BRANCH  21  24
HETATM   24  C   UNK N   1      29.640  16.355   5.550  0.00  0.00     0.274 C 
BRANCH  24  25
HETATM   25  C   UNK N   1      29.450  17.666   4.809  0.00  0.00     0.052 C 
BRANCH  25  26
HETATM   26  C   UNK N   1      27.968  17.963   4.673  0.00  0.00     0.151 C 
BRANCH  26  27
HETATM   27  N   UNK N   1      27.596  19.096   5.504  0.00  0.00    -0.288 N 
HETATM   28  C   UNK N   1      27.501  20.372   5.103  0.00  0.00     0.130 A 
HETATM   29  C   UNK N   1      27.099  21.098   6.212  0.00  0.00     0.127 A 
HETATM   30  N   UNK N   1      26.964  20.228   7.235  0.00  0.00    -0.296 N 
HETATM   31  N   UNK N   1      27.268  19.025   6.779  0.00  0.00    -0.241 N 
ATOM     32  HN  UNK N   1      26.679  20.457   8.188  1.00  0.00     0.187 HD
ATOM     33  HN  UNK N   1      27.252  18.168   7.332  1.00  0.00     0.208 HD
ENDBRANCH  26  27
ENDBRANCH  25  26
ENDBRANCH  24  25
ENDBRANCH  21  24
ENDBRANCH   1  18
TORSDOF 9
ENDMDL
MODEL 2
REMARK VINA RESULT:      -6.9      3.433      9.297
REMARK  9 active torsions:
REMARK  status: ('A' for Active; 'I' for Inactive)
REMARK    1  A    between atoms: O_2  and  C_3 
REMARK    2  A    between atoms: C_5  and  N_30 
REMARK    3  A    between atoms: C_8  and  C_9 
REMARK       I    between atoms: C_9  and  N_11 
REMARK    4  A    between atoms: N_11  and  C_12 
REMARK    5  A    between atoms: C_12  and  C_13 
REMARK    6  A    between atoms: N_16  and  C_19 
REMARK    7  A    between atoms: C_19  and  C_20 
REMARK    8  A    between atoms: C_20  and  C_21 
REMARK    9  A    between atoms: C_21  and  N_22 
ROOT
HETATM    1  C   UNK N   1      35.366  17.290  10.564  0.00  0.00     0.127 C 
ENDROOT
BRANCH   1   2
HETATM    2  N   UNK N   1      34.433  17.156   9.481  0.00  0.00    -0.356 N 
HETATM    3  C   UNK N   1      34.260  17.987   8.431  0.00  0.00     0.254 C 
HETATM    4  O   UNK N   1      34.975  18.966   8.302  0.00  0.00    -0.268 OA
HETATM    5  H   UNK N   1      33.852  16.361   9.506  0.00  0.00     0.162 HD
BRANCH   3   6
HETATM    6  C   UNK N   1      33.106  17.686   7.524  0.00  0.00     0.067 A 
HETATM    7  C   UNK N   1      33.483  17.459   6.186  0.00  0.00     0.046 A 
HETATM    8  C   UNK N   1      32.578  17.107   5.201  0.00  0.00     0.061 A 
HETATM    9  C   UNK N   1      31.234  16.965   5.528  0.00  0.00     0.050 A 
HETATM   10 Cl   UNK N   1      33.166  16.831   3.570  0.00  0.00    -0.082 Cl
HETATM   11  C   UNK N   1      30.813  17.189   6.842  0.00  0.00     0.068 A 
HETATM   12  C   UNK N   1      31.712  17.556   7.858  0.00  0.00     0.086 A 
BRANCH   9  13
HETATM   13  N   UNK N   1      30.293  16.600   4.544  0.00  0.00    -0.398 N 
HETATM   14  H   UNK N   1      30.285  17.063   3.676  0.00  0.00     0.156 HD
HETATM   15  H   UNK N   1      29.645  15.882   4.725  0.00  0.00     0.156 HD
ENDBRANCH   9  13
BRANCH  12  16
HETATM   16  O   UNK N   1      31.158  17.762   9.083  0.00  0.00    -0.355 OA
HETATM   17  C   UNK N   1      30.105  18.580   9.398  0.00  0.00     0.210 C 
ENDBRANCH  12  16
ENDBRANCH   3   6
ENDBRANCH   1   2
BRANCH   1  18
HETATM   18  C   UNK N   1      35.601  15.869  11.059  0.00  0.00     0.007 C 
HETATM   19  C   UNK N   1      36.663  15.161  10.212  0.00  0.00     0.036 C 
HETATM   20  C   UNK N   1      36.947  13.798  10.820  0.00  0.00     0.273 C 
HETATM   21  N   UNK N   1      35.724  13.002  10.827  0.00  0.00     0.088 N 
HETATM   22  C   UNK N   1      34.734  13.657  11.689  0.00  0.00     0.273 C 
HETATM   23  C   UNK N   1      34.342  15.024  11.118  0.00  0.00     0.036 C 
BRANCH  21  24
HETATM   24  C   UNK N   1      36.073  11.720  11.416  0.00  0.00     0.274 C 
BRANCH  24  25
HETATM   25  C   UNK N   1      37.475  11.765  11.995  0.00  0.00     0.052 C 
BRANCH  25  26
HETATM   26  C   UNK N   1      37.462  11.197  13.402  0.00  0.00     0.151 C 
BRANCH  26  27
HETATM   27  N   UNK N   1      36.867  12.144  14.331  0.00  0.00    -0.288 N 
HETATM   28  C   UNK N   1      35.812  11.914  15.126  0.00  0.00     0.130 A 
HETATM   29  C   UNK N   1      35.610  13.078  15.848  0.00  0.00     0.127 A 
HETATM   30  N   UNK N   1      36.555  13.961  15.460  0.00  0.00    -0.296 N 
HETATM   31  N   UNK N   1      37.303  13.370  14.544  0.00  0.00    -0.241 N 
ATOM     32  HN  UNK N   1      36.671  14.912  15.810  1.00  0.00     0.187 HD
ATOM     33  HN  UNK N   1      38.099  13.799  14.071  1.00  0.00     0.208 HD
ENDBRANCH  26  27
ENDBRANCH  25  26
ENDBRANCH  24  25
ENDBRANCH  21  24
ENDBRANCH   1  18
TORSDOF 9
ENDMDL
MODEL 3
REMARK VINA RESULT:      -6.9      6.596     11.960
REMARK  9 active torsions:
REMARK  status: ('A' for Active; 'I' for Inactive)
REMARK    1  A    between atoms: O_2  and  C_3 
REMARK    2  A    between atoms: C_5  and  N_30 
REMARK    3  A    between atoms: C_8  and  C_9 
REMARK       I    between atoms: C_9  and  N_11 
REMARK    4  A    between atoms: N_11  and  C_12 
REMARK    5  A    between atoms: C_12  and  C_13 
REMARK    6  A    between atoms: N_16  and  C_19 
REMARK    7  A    between atoms: C_19  and  C_20 
REMARK    8  A    between atoms: C_20  and  C_21 
REMARK    9  A    between atoms: C_21  and  N_22 
ROOT
HETATM    1  C   UNK N   1      26.604  20.677   4.934  0.00  0.00     0.127 C 
ENDROOT
BRANCH   1   2
HETATM    2  N   UNK N   1      25.295  20.222   4.561  0.00  0.00    -0.356 N 
HETATM    3  C   UNK N   1      24.706  20.305   3.349  0.00  0.00     0.254 C 
HETATM    4  O   UNK N   1      25.317  20.772   2.403  0.00  0.00    -0.268 OA
HETATM    5  H   UNK N   1      24.764  19.798   5.274  0.00  0.00     0.162 HD
BRANCH   3   6
HETATM    6  C   UNK N   1      23.268  19.890   3.276  0.00  0.00     0.067 A 
HETATM    7  C   UNK N   1      22.515  20.625   2.339  0.00  0.00     0.046 A 
HETATM    8  C   UNK N   1      21.184  20.360   2.074  0.00  0.00     0.061 A 
HETATM    9  C   UNK N   1      20.546  19.326   2.751  0.00  0.00     0.050 A 
HETATM   10 Cl   UNK N   1      20.350  21.330   0.871  0.00  0.00    -0.082 Cl
HETATM   11  C   UNK N   1      21.251  18.576   3.695  0.00  0.00     0.068 A 
HETATM   12  C   UNK N   1      22.603  18.831   3.988  0.00  0.00     0.086 A 
BRANCH   9  13
HETATM   13  N   UNK N   1      19.191  19.031   2.493  0.00  0.00    -0.398 N 
HETATM   14  H   UNK N   1      18.946  18.176   2.073  0.00  0.00     0.156 HD
HETATM   15  H   UNK N   1      18.492  19.680   2.732  0.00  0.00     0.156 HD
ENDBRANCH   9  13
BRANCH  12  16
HETATM   16  O   UNK N   1      23.154  18.036   4.944  0.00  0.00    -0.355 OA
HETATM   17  C   UNK N   1      22.504  17.219   5.830  0.00  0.00     0.210 C 
ENDBRANCH  12  16
ENDBRANCH   3   6
ENDBRANCH   1   2
BRANCH   1  18
HETATM   18  C   UNK N   1      27.262  19.477   5.603  0.00  0.00     0.007 C 
HETATM   19  C   UNK N   1      27.825  19.852   6.977  0.00  0.00     0.036 C 
HETATM   20  C   UNK N   1      28.357  18.598   7.649  0.00  0.00     0.273 C 
HETATM   21  N   UNK N   1      29.420  18.021   6.833  0.00  0.00     0.088 N 
HETATM   22  C   UNK N   1      28.858  17.608   5.542  0.00  0.00     0.273 C 
HETATM   23  C   UNK N   1      28.345  18.824   4.764  0.00  0.00     0.036 C 
BRANCH  21  24
HETATM   24  C   UNK N   1      29.879  16.835   7.537  0.00  0.00     0.274 C 
BRANCH  24  25
HETATM   25  C   UNK N   1      31.004  17.186   8.493  0.00  0.00     0.052 C 
BRANCH  25  26
HETATM   26  C   UNK N   1      32.298  16.560   8.007  0.00  0.00     0.151 C 
BRANCH  26  27
HETATM   27  N   UNK N   1      33.030  15.972   9.116  0.00  0.00    -0.288 N 
HETATM   28  C   UNK N   1      34.337  16.126   9.370  0.00  0.00     0.130 A 
HETATM   29  C   UNK N   1      34.594  15.411  10.528  0.00  0.00     0.127 A 
HETATM   30  N   UNK N   1      33.429  14.858  10.927  0.00  0.00    -0.296 N 
HETATM   31  N   UNK N   1      32.499  15.215  10.056  0.00  0.00    -0.241 N 
ATOM     32  HN  UNK N   1      33.290  14.271  11.749  1.00  0.00     0.187 HD
ATOM     33  HN  UNK N   1      31.517  14.944  10.105  1.00  0.00     0.208 HD
ENDBRANCH  26  27
ENDBRANCH  25  26
ENDBRANCH  24  25
ENDBRANCH  21  24
ENDBRANCH   1  18
TORSDOF 9
ENDMDL
MODEL 4
REMARK VINA RESULT:      -6.9      6.593     11.628
REMARK  9 active torsions:
REMARK  status: ('A' for Active; 'I' for Inactive)
REMARK    1  A    between atoms: O_2  and  C_3 
REMARK    2  A    between atoms: C_5  and  N_30 
REMARK    3  A    between atoms: C_8  and  C_9 
REMARK       I    between atoms: C_9  and  N_11 
REMARK    4  A    between atoms: N_11  and  C_12 
REMARK    5  A    between atoms: C_12  and  C_13 
REMARK    6  A    between atoms: N_16  and  C_19 
REMARK    7  A    between atoms: C_19  and  C_20 
REMARK    8  A    between atoms: C_20  and  C_21 
REMARK    9  A    between atoms: C_21  and  N_22 
ROOT
HETATM    1  C   UNK N   1      26.208  20.440   3.137  0.00  0.00     0.127 C 
ENDROOT
BRANCH   1   2
HETATM    2  N   UNK N   1      25.007  19.674   3.311  0.00  0.00    -0.356 N 
HETATM    3  C   UNK N   1      23.731  20.108   3.237  0.00  0.00     0.254 C 
HETATM    4  O   UNK N   1      23.496  21.269   2.950  0.00  0.00    -0.268 OA
HETATM    5  H   UNK N   1      25.130  18.717   3.507  0.00  0.00     0.162 HD
BRANCH   3   6
HETATM    6  C   UNK N   1      22.668  19.123   3.615  0.00  0.00     0.067 A 
HETATM    7  C   UNK N   1      21.406  19.413   3.059  0.00  0.00     0.046 A 
HETATM    8  C   UNK N   1      20.303  18.596   3.235  0.00  0.00     0.061 A 
HETATM    9  C   UNK N   1      20.428  17.435   3.989  0.00  0.00     0.050 A 
HETATM   10 Cl   UNK N   1      18.784  19.049   2.479  0.00  0.00    -0.082 Cl
HETATM   11  C   UNK N   1      21.658  17.111   4.567  0.00  0.00     0.068 A 
HETATM   12  C   UNK N   1      22.791  17.930   4.409  0.00  0.00     0.086 A 
BRANCH   9  13
HETATM   13  N   UNK N   1      19.321  16.582   4.177  0.00  0.00    -0.398 N 
HETATM   14  H   UNK N   1      19.119  16.228   5.073  0.00  0.00     0.156 HD
HETATM   15  H   UNK N   1      18.750  16.341   3.413  0.00  0.00     0.156 HD
ENDBRANCH   9  13
BRANCH  12  16
HETATM   16  O   UNK N   1      23.915  17.502   5.046  0.00  0.00    -0.355 OA
HETATM   17  C   UNK N   1      24.338  16.210   5.220  0.00  0.00     0.210 C 
ENDBRANCH  12  16
ENDBRANCH   3   6
ENDBRANCH   1   2
BRANCH   1  18
HETATM   18  C   UNK N   1      27.092  20.061   4.318  0.00  0.00     0.007 C 
HETATM   19  C   UNK N   1      27.299  18.545   4.386  0.00  0.00     0.036 C 
HETATM   20  C   UNK N   1      28.281  18.233   5.501  0.00  0.00     0.273 C 
HETATM   21  N   UNK N   1      27.742  18.704   6.772  0.00  0.00     0.088 N 
HETATM   22  C   UNK N   1      27.605  20.164   6.720  0.00  0.00     0.273 C 
HETATM   23  C   UNK N   1      26.583  20.571   5.654  0.00  0.00     0.036 C 
BRANCH  21  24
HETATM   24  C   UNK N   1      28.729  18.369   7.785  0.00  0.00     0.274 C 
BRANCH  24  25
HETATM   25  C   UNK N   1      29.937  17.703   7.152  0.00  0.00     0.052 C 
BRANCH  25  26
HETATM   26  C   UNK N   1      30.708  16.937   8.209  0.00  0.00     0.151 C 
BRANCH  26  27
HETATM   27  N   UNK N   1      32.131  17.219   8.109  0.00  0.00    -0.288 N 
HETATM   28  C   UNK N   1      32.801  17.507   6.984  0.00  0.00     0.130 A 
HETATM   29  C   UNK N   1      34.116  17.723   7.361  0.00  0.00     0.127 A 
HETATM   30  N   UNK N   1      34.183  17.559   8.699  0.00  0.00    -0.296 N 
HETATM   31  N   UNK N   1      32.968  17.258   9.126  0.00  0.00    -0.241 N 
ATOM     32  HN  UNK N   1      35.019  17.652   9.277  1.00  0.00     0.187 HD
ATOM     33  HN  UNK N   1      32.717  17.080  10.099  1.00  0.00     0.208 HD
ENDBRANCH  26  27
ENDBRANCH  25  26
ENDBRANCH  24  25
ENDBRANCH  21  24
ENDBRANCH   1  18
TORSDOF 9
ENDMDL
MODEL 5
REMARK VINA RESULT:      -6.8      6.580     11.922
REMARK  9 active torsions:
REMARK  status: ('A' for Active; 'I' for Inactive)
REMARK    1  A    between atoms: O_2  and  C_3 
REMARK    2  A    between atoms: C_5  and  N_30 
REMARK    3  A    between atoms: C_8  and  C_9 
REMARK       I    between atoms: C_9  and  N_11 
REMARK    4  A    between atoms: N_11  and  C_12 
REMARK    5  A    between atoms: C_12  and  C_13 
REMARK    6  A    between atoms: N_16  and  C_19 
REMARK    7  A    between atoms: C_19  and  C_20 
REMARK    8  A    between atoms: C_20  and  C_21 
REMARK    9  A    between atoms: C_21  and  N_22 
ROOT
HETATM    1  C   UNK N   1      26.204  20.433   4.694  0.00  0.00     0.127 C 
ENDROOT
BRANCH   1   2
HETATM    2  N   UNK N   1      24.949  19.821   4.360  0.00  0.00    -0.356 N 
HETATM    3  C   UNK N   1      24.143  20.106   3.315  0.00  0.00     0.254 C 
HETATM    4  O   UNK N   1      24.479  20.941   2.494  0.00  0.00    -0.268 OA
HETATM    5  H   UNK N   1      24.641  19.108   4.965  0.00  0.00     0.162 HD
BRANCH   3   6
HETATM    6  C   UNK N   1      22.812  19.418   3.293  0.00  0.00     0.067 A 
HETATM    7  C   UNK N   1      22.806  18.178   3.963  0.00  0.00     0.046 A 
HETATM    8  C   UNK N   1      21.665  17.411   4.110  0.00  0.00     0.061 A 
HETATM    9  C   UNK N   1      20.463  17.868   3.581  0.00  0.00     0.050 A 
HETATM   10 Cl   UNK N   1      21.773  15.890   4.982  0.00  0.00    -0.082 Cl
HETATM   11  C   UNK N   1      20.423  19.087   2.901  0.00  0.00     0.068 A 
HETATM   12  C   UNK N   1      21.571  19.881   2.731  0.00  0.00     0.086 A 
BRANCH   9  13
HETATM   13  N   UNK N   1      19.284  17.108   3.725  0.00  0.00    -0.398 N 
HETATM   14  H   UNK N   1      18.406  17.536   3.608  0.00  0.00     0.156 HD
HETATM   15  H   UNK N   1      19.340  16.150   3.942  0.00  0.00     0.156 HD
ENDBRANCH   9  13
BRANCH  12  16
HETATM   16  O   UNK N   1      21.388  21.032   2.029  0.00  0.00    -0.355 OA
HETATM   17  C   UNK N   1      20.721  21.191   0.843  0.00  0.00     0.210 C 
ENDBRANCH  12  16
ENDBRANCH   3   6
ENDBRANCH   1   2
BRANCH   1  18
HETATM   18  C   UNK N   1      26.921  19.411   5.567  0.00  0.00     0.007 C 
HETATM   19  C   UNK N   1      27.561  20.082   6.786  0.00  0.00     0.036 C 
HETATM   20  C   UNK N   1      28.154  19.008   7.681  0.00  0.00     0.273 C 
HETATM   21  N   UNK N   1      29.174  18.267   6.947  0.00  0.00     0.088 N 
HETATM   22  C   UNK N   1      28.540  17.578   5.816  0.00  0.00     0.273 C 
HETATM   23  C   UNK N   1      27.961  18.592   4.824  0.00  0.00     0.036 C 
BRANCH  21  24
HETATM   24  C   UNK N   1      29.694  17.267   7.864  0.00  0.00     0.274 C 
BRANCH  24  25
HETATM   25  C   UNK N   1      31.121  17.598   8.259  0.00  0.00     0.052 C 
BRANCH  25  26
HETATM   26  C   UNK N   1      32.047  16.488   7.800  0.00  0.00     0.151 C 
BRANCH  26  27
HETATM   27  N   UNK N   1      32.770  15.925   8.929  0.00  0.00    -0.288 N 
HETATM   28  C   UNK N   1      34.095  15.983   9.125  0.00  0.00     0.130 A 
HETATM   29  C   UNK N   1      34.337  15.341  10.328  0.00  0.00     0.127 A 
HETATM   30  N   UNK N   1      33.146  14.926  10.809  0.00  0.00    -0.296 N 
HETATM   31  N   UNK N   1      32.215  15.295   9.945  0.00  0.00    -0.241 N 
ATOM     32  HN  UNK N   1      32.991  14.421  11.682  1.00  0.00     0.187 HD
ATOM     33  HN  UNK N   1      31.216  15.117  10.049  1.00  0.00     0.208 HD
ENDBRANCH  26  27
ENDBRANCH  25  26
ENDBRANCH  24  25
ENDBRANCH  21  24
ENDBRANCH   1  18
TORSDOF 9
ENDMDL
MODEL 6
REMARK VINA RESULT:      -6.6      7.960     11.623
REMARK  9 active torsions:
REMARK  status: ('A' for Active; 'I' for Inactive)
REMARK    1  A    between atoms: O_2  and  C_3 
REMARK    2  A    between atoms: C_5  and  N_30 
REMARK    3  A    between atoms: C_8  and  C_9 
REMARK       I    between atoms: C_9  and  N_11 
REMARK    4  A    between atoms: N_11  and  C_12 
REMARK    5  A    between atoms: C_12  and  C_13 
REMARK    6  A    between atoms: N_16  and  C_19 
REMARK    7  A    between atoms: C_19  and  C_20 
REMARK    8  A    between atoms: C_20  and  C_21 
REMARK    9  A    between atoms: C_21  and  N_22 
ROOT
HETATM    1  C   UNK N   1      21.677  18.618   4.151  0.00  0.00     0.127 C 
ENDROOT
BRANCH   1   2
HETATM    2  N   UNK N   1      23.096  18.615   4.367  0.00  0.00    -0.356 N 
HETATM    3  C   UNK N   1      24.023  19.404   3.781  0.00  0.00     0.254 C 
HETATM    4  O   UNK N   1      23.680  20.272   2.999  0.00  0.00    -0.268 OA
HETATM    5  H   UNK N   1      23.433  17.959   5.019  0.00  0.00     0.162 HD
BRANCH   3   6
HETATM    6  C   UNK N   1      25.456  19.081   4.077  0.00  0.00     0.067 A 
HETATM    7  C   UNK N   1      25.891  17.868   3.505  0.00  0.00     0.046 A 
HETATM    8  C   UNK N   1      27.194  17.417   3.607  0.00  0.00     0.061 A 
HETATM    9  C   UNK N   1      28.129  18.179   4.299  0.00  0.00     0.050 A 
HETATM   10 Cl   UNK N   1      27.628  15.899   2.837  0.00  0.00    -0.082 Cl
HETATM   11  C   UNK N   1      27.740  19.384   4.889  0.00  0.00     0.068 A 
HETATM   12  C   UNK N   1      26.420  19.860   4.807  0.00  0.00     0.086 A 
BRANCH   9  13
HETATM   13  N   UNK N   1      29.465  17.744   4.410  0.00  0.00    -0.398 N 
HETATM   14  H   UNK N   1      30.123  18.294   4.893  0.00  0.00     0.156 HD
HETATM   15  H   UNK N   1      29.740  16.891   4.005  0.00  0.00     0.156 HD
ENDBRANCH   9  13
BRANCH  12  16
HETATM   16  O   UNK N   1      26.181  21.036   5.448  0.00  0.00    -0.355 OA
HETATM   17  C   UNK N   1      26.805  21.520   6.568  0.00  0.00     0.210 C 
ENDBRANCH  12  16
ENDBRANCH   3   6
ENDBRANCH   1   2
BRANCH   1  18
HETATM   18  C   UNK N   1      21.141  17.510   5.047  0.00  0.00     0.007 C 
HETATM   19  C   UNK N   1      21.194  17.919   6.522  0.00  0.00     0.036 C 
HETATM   20  C   UNK N   1      20.538  16.834   7.357  0.00  0.00     0.273 C 
HETATM   21  N   UNK N   1      21.258  15.578   7.179  0.00  0.00     0.088 N 
HETATM   22  C   UNK N   1      21.150  15.162   5.775  0.00  0.00     0.273 C 
HETATM   23  C   UNK N   1      21.840  16.176   4.858  0.00  0.00     0.036 C 
BRANCH  21  24
HETATM   24  C   UNK N   1      20.578  14.595   8.005  0.00  0.00     0.274 C 
BRANCH  24  25
HETATM   25  C   UNK N   1      21.285  14.442   9.339  0.00  0.00     0.052 C 
BRANCH  25  26
HETATM   26  C   UNK N   1      20.731  13.234  10.073  0.00  0.00     0.151 C 
BRANCH  26  27
HETATM   27  N   UNK N   1      21.773  12.589  10.855  0.00  0.00    -0.288 N 
HETATM   28  C   UNK N   1      23.086  12.600  10.583  0.00  0.00     0.130 A 
HETATM   29  C   UNK N   1      23.698  11.883  11.598  0.00  0.00     0.127 A 
HETATM   30  N   UNK N   1      22.728  11.474  12.443  0.00  0.00    -0.296 N 
HETATM   31  N   UNK N   1      21.574  11.917  11.971  0.00  0.00    -0.241 N 
ATOM     32  HN  UNK N   1      22.860  10.924  13.291  1.00  0.00     0.187 HD
ATOM     33  HN  UNK N   1      20.665  11.760  12.406  1.00  0.00     0.208 HD
ENDBRANCH  26  27
ENDBRANCH  25  26
ENDBRANCH  24  25
ENDBRANCH  21  24
ENDBRANCH   1  18
TORSDOF 9
ENDMDL
MODEL 7
REMARK VINA RESULT:      -6.5      3.752      9.576
REMARK  9 active torsions:
REMARK  status: ('A' for Active; 'I' for Inactive)
REMARK    1  A    between atoms: O_2  and  C_3 
REMARK    2  A    between atoms: C_5  and  N_30 
REMARK    3  A    between atoms: C_8  and  C_9 
REMARK       I    between atoms: C_9  and  N_11 
REMARK    4  A    between atoms: N_11  and  C_12 
REMARK    5  A    between atoms: C_12  and  C_13 
REMARK    6  A    between atoms: N_16  and  C_19 
REMARK    7  A    between atoms: C_19  and  C_20 
REMARK    8  A    between atoms: C_20  and  C_21 
REMARK    9  A    between atoms: C_21  and  N_22 
ROOT
HETATM    1  C   UNK N   1      31.852  15.145   5.614  0.00  0.00     0.127 C 
ENDROOT
BRANCH   1   2
HETATM    2  N   UNK N   1      30.824  16.095   5.931  0.00  0.00    -0.356 N 
HETATM    3  C   UNK N   1      30.158  16.907   5.083  0.00  0.00     0.254 C 
HETATM    4  O   UNK N   1      30.376  16.850   3.885  0.00  0.00    -0.268 OA
HETATM    5  H   UNK N   1      30.574  16.161   6.881  0.00  0.00     0.162 HD
BRANCH   3   6
HETATM    6  C   UNK N   1      29.240  17.914   5.705  0.00  0.00     0.067 A 
HETATM    7  C   UNK N   1      28.479  18.640   4.767  0.00  0.00     0.046 A 
HETATM    8  C   UNK N   1      27.528  19.575   5.136  0.00  0.00     0.061 A 
HETATM    9  C   UNK N   1      27.300  19.821   6.485  0.00  0.00     0.050 A 
HETATM   10 Cl   UNK N   1      26.625  20.405   3.879  0.00  0.00    -0.082 Cl
HETATM   11  C   UNK N   1      28.038  19.131   7.450  0.00  0.00     0.068 A 
HETATM   12  C   UNK N   1      29.015  18.182   7.101  0.00  0.00     0.086 A 
BRANCH   9  13
HETATM   13  N   UNK N   1      26.331  20.763   6.886  0.00  0.00    -0.398 N 
HETATM   14  H   UNK N   1      26.098  21.512   6.291  0.00  0.00     0.156 HD
HETATM   15  H   UNK N   1      25.889  20.673   7.761  0.00  0.00     0.156 HD
ENDBRANCH   9  13
BRANCH  12  16
HETATM   16  O   UNK N   1      29.670  17.606   8.145  0.00  0.00    -0.355 OA
HETATM   17  C   UNK N   1      30.653  18.157   8.923  0.00  0.00     0.210 C 
ENDBRANCH  12  16
ENDBRANCH   3   6
ENDBRANCH   1   2
BRANCH   1  18
HETATM   18  C   UNK N   1      32.891  15.307   6.715  0.00  0.00     0.007 C 
HETATM   19  C   UNK N   1      32.319  14.901   8.076  0.00  0.00     0.036 C 
HETATM   20  C   UNK N   1      33.427  14.964   9.113  0.00  0.00     0.273 C 
HETATM   21  N   UNK N   1      33.943  16.327   9.194  0.00  0.00     0.088 N 
HETATM   22  C   UNK N   1      34.544  16.686   7.904  0.00  0.00     0.273 C 
HETATM   23  C   UNK N   1      33.481  16.704   6.801  0.00  0.00     0.036 C 
BRANCH  21  24
HETATM   24  C   UNK N   1      34.989  16.309  10.202  0.00  0.00     0.274 C 
BRANCH  24  25
HETATM   25  C   UNK N   1      34.732  15.212  11.217  0.00  0.00     0.052 C 
BRANCH  25  26
HETATM   26  C   UNK N   1      35.809  15.244  12.285  0.00  0.00     0.151 C 
BRANCH  26  27
HETATM   27  N   UNK N   1      36.529  13.982  12.324  0.00  0.00    -0.288 N 
HETATM   28  C   UNK N   1      36.250  12.938  13.119  0.00  0.00     0.130 A 
HETATM   29  C   UNK N   1      37.172  11.954  12.803  0.00  0.00     0.127 A 
HETATM   30  N   UNK N   1      37.966  12.444  11.828  0.00  0.00    -0.296 N 
HETATM   31  N   UNK N   1      37.554  13.670  11.556  0.00  0.00    -0.241 N 
ATOM     32  HN  UNK N   1      38.743  11.956  11.382  1.00  0.00     0.187 HD
ATOM     33  HN  UNK N   1      37.969  14.286  10.855  1.00  0.00     0.208 HD
ENDBRANCH  26  27
ENDBRANCH  25  26
ENDBRANCH  24  25
ENDBRANCH  21  24
ENDBRANCH   1  18
TORSDOF 9
ENDMDL
MODEL 8
REMARK VINA RESULT:      -6.4      3.056      9.381
REMARK  9 active torsions:
REMARK  status: ('A' for Active; 'I' for Inactive)
REMARK    1  A    between atoms: O_2  and  C_3 
REMARK    2  A    between atoms: C_5  and  N_30 
REMARK    3  A    between atoms: C_8  and  C_9 
REMARK       I    between atoms: C_9  and  N_11 
REMARK    4  A    between atoms: N_11  and  C_12 
REMARK    5  A    between atoms: C_12  and  C_13 
REMARK    6  A    between atoms: N_16  and  C_19 
REMARK    7  A    between atoms: C_19  and  C_20 
REMARK    8  A    between atoms: C_20  and  C_21 
REMARK    9  A    between atoms: C_21  and  N_22 
ROOT
HETATM    1  C   UNK N   1      35.229  16.975  10.153  0.00  0.00     0.127 C 
ENDROOT
BRANCH   1   2
HETATM    2  N   UNK N   1      34.022  16.897   9.379  0.00  0.00    -0.356 N 
HETATM    3  C   UNK N   1      33.673  17.649   8.314  0.00  0.00     0.254 C 
HETATM    4  O   UNK N   1      34.445  18.485   7.877  0.00  0.00    -0.268 OA
HETATM    5  H   UNK N   1      33.373  16.212   9.659  0.00  0.00     0.162 HD
BRANCH   3   6
HETATM    6  C   UNK N   1      32.283  17.458   7.789  0.00  0.00     0.067 A 
HETATM    7  C   UNK N   1      31.278  17.818   8.709  0.00  0.00     0.046 A 
HETATM    8  C   UNK N   1      29.930  17.774   8.402  0.00  0.00     0.061 A 
HETATM    9  C   UNK N   1      29.532  17.361   7.135  0.00  0.00     0.050 A 
HETATM   10 Cl   UNK N   1      28.767  18.264   9.623  0.00  0.00    -0.082 Cl
HETATM   11  C   UNK N   1      30.493  16.987   6.194  0.00  0.00     0.068 A 
HETATM   12  C   UNK N   1      31.869  17.015   6.484  0.00  0.00     0.086 A 
BRANCH   9  13
HETATM   13  N   UNK N   1      28.164  17.315   6.796  0.00  0.00    -0.398 N 
HETATM   14  H   UNK N   1      27.487  17.190   7.499  0.00  0.00     0.156 HD
HETATM   15  H   UNK N   1      27.887  17.407   5.856  0.00  0.00     0.156 HD
ENDBRANCH   9  13
BRANCH  12  16
HETATM   16  O   UNK N   1      32.688  16.602   5.479  0.00  0.00    -0.355 OA
HETATM   17  C   UNK N   1      33.076  17.311   4.373  0.00  0.00     0.210 C 
ENDBRANCH  12  16
ENDBRANCH   3   6
ENDBRANCH   1   2
BRANCH   1  18
HETATM   18  C   UNK N   1      35.478  15.554  10.638  0.00  0.00     0.007 C 
HETATM   19  C   UNK N   1      34.309  14.634  10.273  0.00  0.00     0.036 C 
HETATM   20  C   UNK N   1      34.661  13.211  10.669  0.00  0.00     0.273 C 
HETATM   21  N   UNK N   1      34.893  13.148  12.108  0.00  0.00     0.088 N 
HETATM   22  C   UNK N   1      36.053  13.984  12.441  0.00  0.00     0.273 C 
HETATM   23  C   UNK N   1      35.765  15.455  12.126  0.00  0.00     0.036 C 
BRANCH  21  24
HETATM   24  C   UNK N   1      35.219  11.764  12.410  0.00  0.00     0.274 C 
BRANCH  24  25
HETATM   25  C   UNK N   1      34.392  11.266  13.581  0.00  0.00     0.052 C 
BRANCH  25  26
HETATM   26  C   UNK N   1      35.314  10.793  14.690  0.00  0.00     0.151 C 
BRANCH  26  27
HETATM   27  N   UNK N   1      35.177  11.639  15.864  0.00  0.00    -0.288 N 
HETATM   28  C   UNK N   1      35.472  11.293  17.125  0.00  0.00     0.130 A 
HETATM   29  C   UNK N   1      35.210  12.407  17.905  0.00  0.00     0.127 A 
HETATM   30  N   UNK N   1      34.771  13.381  17.079  0.00  0.00    -0.296 N 
HETATM   31  N   UNK N   1      34.764  12.891  15.851  0.00  0.00    -0.241 N 
ATOM     32  HN  UNK N   1      34.496  14.325  17.353  1.00  0.00     0.187 HD
ATOM     33  HN  UNK N   1      34.478  13.405  15.017  1.00  0.00     0.208 HD
ENDBRANCH  26  27
ENDBRANCH  25  26
ENDBRANCH  24  25
ENDBRANCH  21  24
ENDBRANCH   1  18
TORSDOF 9
ENDMDL
MODEL 9
REMARK VINA RESULT:      -6.3      8.034     10.066
REMARK  9 active torsions:
REMARK  status: ('A' for Active; 'I' for Inactive)
REMARK    1  A    between atoms: O_2  and  C_3 
REMARK    2  A    between atoms: C_5  and  N_30 
REMARK    3  A    between atoms: C_8  and  C_9 
REMARK       I    between atoms: C_9  and  N_11 
REMARK    4  A    between atoms: N_11  and  C_12 
REMARK    5  A    between atoms: C_12  and  C_13 
REMARK    6  A    between atoms: N_16  and  C_19 
REMARK    7  A    between atoms: C_19  and  C_20 
REMARK    8  A    between atoms: C_20  and  C_21 
REMARK    9  A    between atoms: C_21  and  N_22 
ROOT
HETATM    1  C   UNK N   1      22.160  16.137   5.739  0.00  0.00     0.127 C 
ENDROOT
BRANCH   1   2
HETATM    2  N   UNK N   1      22.386  15.216   6.817  0.00  0.00    -0.356 N 
HETATM    3  C   UNK N   1      21.461  14.557   7.548  0.00  0.00     0.254 C 
HETATM    4  O   UNK N   1      20.277  14.678   7.288  0.00  0.00    -0.268 OA
HETATM    5  H   UNK N   1      23.327  15.045   7.049  0.00  0.00     0.162 HD
BRANCH   3   6
HETATM    6  C   UNK N   1      21.972  13.773   8.718  0.00  0.00     0.067 A 
HETATM    7  C   UNK N   1      20.965  13.402   9.631  0.00  0.00     0.046 A 
HETATM    8  C   UNK N   1      21.215  12.625  10.748  0.00  0.00     0.061 A 
HETATM    9  C   UNK N   1      22.509  12.180  10.994  0.00  0.00     0.050 A 
HETATM   10 Cl   UNK N   1      19.877  12.208  11.807  0.00  0.00    -0.082 Cl
HETATM   11  C   UNK N   1      23.541  12.531  10.120  0.00  0.00     0.068 A 
HETATM   12  C   UNK N   1      23.314  13.327   8.984  0.00  0.00     0.086 A 
BRANCH   9  13
HETATM   13  N   UNK N   1      22.788  11.380  12.121  0.00  0.00    -0.398 N 
HETATM   14  H   UNK N   1      23.009  10.428  12.006  0.00  0.00     0.156 HD
HETATM   15  H   UNK N   1      22.761  11.774  13.023  0.00  0.00     0.156 HD
ENDBRANCH   9  13
BRANCH  12  16
HETATM   16  O   UNK N   1      24.415  13.607   8.236  0.00  0.00    -0.355 OA
HETATM   17  C   UNK N   1      24.953  12.856   7.224  0.00  0.00     0.210 C 
ENDBRANCH  12  16
ENDBRANCH   3   6
ENDBRANCH   1   2
BRANCH   1  18
HETATM   18  C   UNK N   1      23.529  16.731   5.435  0.00  0.00     0.007 C 
HETATM   19  C   UNK N   1      23.587  17.278   4.006  0.00  0.00     0.036 C 
HETATM   20  C   UNK N   1      24.925  17.964   3.797  0.00  0.00     0.273 C 
HETATM   21  N   UNK N   1      26.004  17.001   3.989  0.00  0.00     0.088 N 
HETATM   22  C   UNK N   1      25.979  16.528   5.378  0.00  0.00     0.273 C 
HETATM   23  C   UNK N   1      24.680  15.768   5.664  0.00  0.00     0.036 C 
BRANCH  21  24
HETATM   24  C   UNK N   1      27.244  17.726   3.770  0.00  0.00     0.274 C 
BRANCH  24  25
HETATM   25  C   UNK N   1      27.822  18.202   5.090  0.00  0.00     0.052 C 
BRANCH  25  26
HETATM   26  C   UNK N   1      28.015  19.707   5.047  0.00  0.00     0.151 C 
BRANCH  26  27
HETATM   27  N   UNK N   1      27.313  20.344   6.149  0.00  0.00    -0.288 N 
HETATM   28  C   UNK N   1      26.711  21.542   6.115  0.00  0.00     0.130 A 
HETATM   29  C   UNK N   1      26.158  21.734   7.370  0.00  0.00     0.127 A 
HETATM   30  N   UNK N   1      26.446  20.641   8.108  0.00  0.00    -0.296 N 
HETATM   31  N   UNK N   1      27.143  19.815   7.345  0.00  0.00    -0.241 N 
ATOM     32  HN  UNK N   1      26.176  20.480   9.079  1.00  0.00     0.187 HD
ATOM     33  HN  UNK N   1      27.497  18.905   7.638  1.00  0.00     0.208 HD
ENDBRANCH  26  27
ENDBRANCH  25  26
ENDBRANCH  24  25
ENDBRANCH  21  24
ENDBRANCH   1  18
TORSDOF 9
ENDMDL
