MODEL 1
REMARK VINA RESULT:      -7.2      0.000      0.000
REMARK  6 active torsions:
REMARK  status: ('A' for Active; 'I' for Inactive)
REMARK    1  A    between atoms: C_2  and  C_3 
REMARK    2  A    between atoms: C_3  and  N_4 
REMARK       I    between atoms: N_4  and  C_5 
REMARK    3  A    between atoms: C_7  and  C_5 
REMARK    4  A    between atoms: C_9  and  C_12 
REMARK    5  A    between atoms: C_15  and  C_18 
REMARK    6  A    between atoms: C_18  and  N_19 
ROOT
HETATM    1  C   UNK N   1      33.144  18.140   7.695  0.00  0.00     0.084 C 
HETATM    2  C   UNK N   1      33.126  17.128   6.563  0.00  0.00     0.062 C 
HETATM    3  C   UNK N   1      31.884  16.501   7.186  0.00  0.00     0.132 C 
HETATM    4  C   UNK N   1      32.085  17.336   8.428  0.00  0.00     0.062 C 
HETATM    5  F   UNK N   1      32.038  15.141   7.391  0.00  0.00    -0.238 F 
ENDROOT
BRANCH   3   6
HETATM    6  C   UNK N   1      30.587  16.866   6.508  0.00  0.00    -0.016 A 
HETATM    7  C   UNK N   1      30.484  16.825   5.116  0.00  0.00     0.053 A 
HETATM    8  C   UNK N   1      29.287  17.186   4.493  0.00  0.00     0.125 A 
HETATM    9  C   UNK N   1      28.179  17.570   5.263  0.00  0.00     0.009 A 
HETATM   10  F   UNK N   1      29.198  17.149   3.141  0.00  0.00    -0.205 F 
HETATM   11  C   UNK N   1      28.269  17.600   6.653  0.00  0.00     0.012 A 
HETATM   12  C   UNK N   1      29.469  17.257   7.271  0.00  0.00     0.011 A 
BRANCH   9  13
HETATM   13  C   UNK N   1      26.898  17.932   4.587  0.00  0.00     0.314 C 
BRANCH  13  14
HETATM   14  N   UNK N   1      26.330  19.174   5.121  0.00  0.00     0.092 N 
HETATM   15  C   UNK N   1      24.941  19.311   4.685  0.00  0.00     0.273 C 
HETATM   16  C   UNK N   1      24.946  19.880   3.281  0.00  0.00     0.032 C 
HETATM   17  C   UNK N   1      26.304  20.524   3.131  0.00  0.00     0.032 C 
HETATM   18  C   UNK N   1      27.018  20.266   4.448  0.00  0.00     0.273 C 
ENDBRANCH  13  14
ENDBRANCH   9  13
ENDBRANCH   3   6
BRANCH   1  19
HETATM   19  C   UNK N   1      34.304  18.193   8.620  0.00  0.00     0.222 C 
HETATM   20  N   UNK N   1      34.335  17.260   9.593  0.00  0.00    -0.360 N 
HETATM   21  H   UNK N   1      33.504  16.767   9.781  0.00  0.00     0.162 HD
HETATM   22  O   UNK N   1      35.254  18.942   8.423  0.00  0.00    -0.273 OA
BRANCH  20  23
HETATM   23  C   UNK N   1      35.494  16.936  10.372  0.00  0.00     0.126 C 
BRANCH  23  24
HETATM   24  C   UNK N   1      35.616  15.415  10.373  0.00  0.00    -0.005 C 
HETATM   25  C   UNK N   1      34.565  14.796  11.262  0.00  0.00     0.011 C 
HETATM   26  C   UNK N   1      35.491  14.846   8.967  0.00  0.00     0.011 C 
ENDBRANCH  23  24
ENDBRANCH  20  23
ENDBRANCH   1  19
TORSDOF 6
ENDMDL
MODEL 2
REMARK VINA RESULT:      -6.9      5.370     11.842
REMARK  6 active torsions:
REMARK  status: ('A' for Active; 'I' for Inactive)
REMARK    1  A    between atoms: C_2  and  C_3 
REMARK    2  A    between atoms: C_3  and  N_4 
REMARK       I    between atoms: N_4  and  C_5 
REMARK    3  A    between atoms: C_7  and  C_5 
REMARK    4  A    between atoms: C_9  and  C_12 
REMARK    5  A    between atoms: C_15  and  C_18 
REMARK    6  A    between atoms: C_18  and  N_19 
ROOT
HETATM    1  C   UNK N   1      34.661  15.500  11.314  0.00  0.00     0.084 C 
HETATM    2  C   UNK N   1      34.879  14.029  11.007  0.00  0.00     0.062 C 
HETATM    3  C   UNK N   1      36.066  14.037  11.964  0.00  0.00     0.132 C 
HETATM    4  C   UNK N   1      35.994  15.544  12.038  0.00  0.00     0.062 C 
HETATM    5  F   UNK N   1      37.216  13.556  11.366  0.00  0.00    -0.238 F 
ENDROOT
BRANCH   3   6
HETATM    6  C   UNK N   1      35.788  13.427  13.316  0.00  0.00    -0.016 A 
HETATM    7  C   UNK N   1      34.784  12.468  13.463  0.00  0.00     0.053 A 
HETATM    8  C   UNK N   1      34.517  11.924  14.722  0.00  0.00     0.125 A 
HETATM    9  C   UNK N   1      35.269  12.322  15.836  0.00  0.00     0.009 A 
HETATM   10  F   UNK N   1      33.537  10.998  14.856  0.00  0.00    -0.205 F 
HETATM   11  C   UNK N   1      36.282  13.269  15.695  0.00  0.00     0.012 A 
HETATM   12  C   UNK N   1      36.534  13.824  14.443  0.00  0.00     0.011 A 
BRANCH   9  13
HETATM   13  C   UNK N   1      34.990  11.717  17.172  0.00  0.00     0.314 C 
BRANCH  13  14
HETATM   14  N   UNK N   1      35.840  10.553  17.434  0.00  0.00     0.092 N 
HETATM   15  C   UNK N   1      35.070   9.324  17.248  0.00  0.00     0.273 C 
HETATM   16  C   UNK N   1      34.280   9.072  18.517  0.00  0.00     0.032 C 
HETATM   17  C   UNK N   1      34.992   9.875  19.580  0.00  0.00     0.032 C 
HETATM   18  C   UNK N   1      36.136  10.568  18.859  0.00  0.00     0.273 C 
ENDBRANCH  13  14
ENDBRANCH   9  13
ENDBRANCH   3   6
BRANCH   1  19
HETATM   19  C   UNK N   1      34.774  16.505  10.228  0.00  0.00     0.222 C 
HETATM   20  N   UNK N   1      33.736  16.579   9.371  0.00  0.00    -0.360 N 
HETATM   21  H   UNK N   1      33.095  15.832   9.364  0.00  0.00     0.162 HD
HETATM   22  O   UNK N   1      35.686  17.324  10.198  0.00  0.00    -0.273 OA
BRANCH  20  23
HETATM   23  C   UNK N   1      33.501  17.669   8.470  0.00  0.00     0.126 C 
BRANCH  23  24
HETATM   24  C   UNK N   1      32.122  17.447   7.856  0.00  0.00    -0.005 C 
HETATM   25  C   UNK N   1      31.845  15.973   7.687  0.00  0.00     0.011 C 
HETATM   26  C   UNK N   1      31.027  18.074   8.706  0.00  0.00     0.011 C 
ENDBRANCH  23  24
ENDBRANCH  20  23
ENDBRANCH   1  19
TORSDOF 6
ENDMDL
MODEL 3
REMARK VINA RESULT:      -6.9      3.708      9.901
REMARK  6 active torsions:
REMARK  status: ('A' for Active; 'I' for Inactive)
REMARK    1  A    between atoms: C_2  and  C_3 
REMARK    2  A    between atoms: C_3  and  N_4 
REMARK       I    between atoms: N_4  and  C_5 
REMARK    3  A    between atoms: C_7  and  C_5 
REMARK    4  A    between atoms: C_9  and  C_12 
REMARK    5  A    between atoms: C_15  and  C_18 
REMARK    6  A    between atoms: C_18  and  N_19 
ROOT
HETATM    1  C   UNK N   1      25.436  19.576   3.527  0.00  0.00     0.084 C 
HETATM    2  C   UNK N   1      26.688  20.436   3.528  0.00  0.00     0.062 C 
HETATM    3  C   UNK N   1      26.727  20.320   5.048  0.00  0.00     0.132 C 
HETATM    4  C   UNK N   1      25.347  19.706   5.036  0.00  0.00     0.062 C 
HETATM    5  F   UNK N   1      26.787  21.559   5.660  0.00  0.00    -0.238 F 
ENDROOT
BRANCH   3   6
HETATM    6  C   UNK N   1      27.739  19.335   5.578  0.00  0.00    -0.016 A 
HETATM    7  C   UNK N   1      27.933  19.195   6.954  0.00  0.00     0.053 A 
HETATM    8  C   UNK N   1      28.888  18.297   7.437  0.00  0.00     0.125 A 
HETATM    9  C   UNK N   1      29.639  17.519   6.545  0.00  0.00     0.009 A 
HETATM   10  F   UNK N   1      29.073  18.173   8.774  0.00  0.00    -0.205 F 
HETATM   11  C   UNK N   1      29.442  17.643   5.170  0.00  0.00     0.012 A 
HETATM   12  C   UNK N   1      28.503  18.551   4.691  0.00  0.00     0.011 A 
BRANCH   9  13
HETATM   13  C   UNK N   1      30.641  16.546   7.074  0.00  0.00     0.314 C 
BRANCH  13  14
HETATM   14  N   UNK N   1      32.016  16.968   6.787  0.00  0.00     0.092 N 
HETATM   15  C   UNK N   1      32.854  15.794   6.548  0.00  0.00     0.273 C 
HETATM   16  C   UNK N   1      33.272  15.237   7.894  0.00  0.00     0.032 C 
HETATM   17  C   UNK N   1      33.085  16.382   8.860  0.00  0.00     0.032 C 
HETATM   18  C   UNK N   1      32.543  17.529   8.023  0.00  0.00     0.273 C 
ENDBRANCH  13  14
ENDBRANCH   9  13
ENDBRANCH   3   6
BRANCH   1  19
HETATM   19  C   UNK N   1      24.159  20.131   3.012  0.00  0.00     0.222 C 
HETATM   20  N   UNK N   1      23.029  19.565   3.479  0.00  0.00    -0.360 N 
HETATM   21  H   UNK N   1      23.107  18.693   3.929  0.00  0.00     0.162 HD
HETATM   22  O   UNK N   1      24.128  21.143   2.319  0.00  0.00    -0.273 OA
BRANCH  20  23
HETATM   23  C   UNK N   1      21.722  20.143   3.365  0.00  0.00     0.126 C 
BRANCH  23  24
HETATM   24  C   UNK N   1      21.030  19.448   2.197  0.00  0.00    -0.005 C 
HETATM   25  C   UNK N   1      19.692  18.894   2.622  0.00  0.00     0.011 C 
HETATM   26  C   UNK N   1      20.836  20.395   1.021  0.00  0.00     0.011 C 
ENDBRANCH  23  24
ENDBRANCH  20  23
ENDBRANCH   1  19
TORSDOF 6
ENDMDL
MODEL 4
REMARK VINA RESULT:      -6.7      1.702      2.328
REMARK  6 active torsions:
REMARK  status: ('A' for Active; 'I' for Inactive)
REMARK    1  A    between atoms: C_2  and  C_3 
REMARK    2  A    between atoms: C_3  and  N_4 
REMARK       I    between atoms: N_4  and  C_5 
REMARK    3  A    between atoms: C_7  and  C_5 
REMARK    4  A    between atoms: C_9  and  C_12 
REMARK    5  A    between atoms: C_15  and  C_18 
REMARK    6  A    between atoms: C_18  and  N_19 
ROOT
HETATM    1  C   UNK N   1      33.881  17.292   8.730  0.00  0.00     0.084 C 
HETATM    2  C   UNK N   1      34.130  17.259   7.232  0.00  0.00     0.062 C 
HETATM    3  C   UNK N   1      33.009  16.234   7.101  0.00  0.00     0.132 C 
HETATM    4  C   UNK N   1      32.970  16.086   8.603  0.00  0.00     0.062 C 
HETATM    5  F   UNK N   1      33.424  15.097   6.433  0.00  0.00    -0.238 F 
ENDROOT
BRANCH   3   6
HETATM    6  C   UNK N   1      31.703  16.792   6.591  0.00  0.00    -0.016 A 
HETATM    7  C   UNK N   1      30.630  16.986   7.464  0.00  0.00     0.053 A 
HETATM    8  C   UNK N   1      29.417  17.482   6.981  0.00  0.00     0.125 A 
HETATM    9  C   UNK N   1      29.279  17.807   5.624  0.00  0.00     0.009 A 
HETATM   10  F   UNK N   1      28.380  17.660   7.835  0.00  0.00    -0.205 F 
HETATM   11  C   UNK N   1      30.349  17.629   4.748  0.00  0.00     0.012 A 
HETATM   12  C   UNK N   1      31.551  17.118   5.229  0.00  0.00     0.011 A 
BRANCH   9  13
HETATM   13  C   UNK N   1      27.984  18.357   5.123  0.00  0.00     0.314 C 
BRANCH  13  14
HETATM   14  N   UNK N   1      28.112  19.753   4.694  0.00  0.00     0.092 N 
HETATM   15  C   UNK N   1      27.748  20.645   5.794  0.00  0.00     0.273 C 
HETATM   16  C   UNK N   1      26.238  20.759   5.822  0.00  0.00     0.032 C 
HETATM   17  C   UNK N   1      25.794  20.339   4.441  0.00  0.00     0.032 C 
HETATM   18  C   UNK N   1      27.072  19.978   3.702  0.00  0.00     0.273 C 
ENDBRANCH  13  14
ENDBRANCH   9  13
ENDBRANCH   3   6
BRANCH   1  19
HETATM   19  C   UNK N   1      34.955  16.874   9.666  0.00  0.00     0.222 C 
HETATM   20  N   UNK N   1      35.315  15.576   9.620  0.00  0.00    -0.360 N 
HETATM   21  H   UNK N   1      34.710  14.949   9.163  0.00  0.00     0.162 HD
HETATM   22  O   UNK N   1      35.583  17.688  10.334  0.00  0.00    -0.273 OA
BRANCH  20  23
HETATM   23  C   UNK N   1      36.519  15.045  10.191  0.00  0.00     0.126 C 
BRANCH  23  24
HETATM   24  C   UNK N   1      36.097  14.079  11.294  0.00  0.00    -0.005 C 
HETATM   25  C   UNK N   1      37.086  12.945  11.417  0.00  0.00     0.011 C 
HETATM   26  C   UNK N   1      35.970  14.788  12.635  0.00  0.00     0.011 C 
ENDBRANCH  23  24
ENDBRANCH  20  23
ENDBRANCH   1  19
TORSDOF 6
ENDMDL
MODEL 5
REMARK VINA RESULT:      -6.7      1.747      2.343
REMARK  6 active torsions:
REMARK  status: ('A' for Active; 'I' for Inactive)
REMARK    1  A    between atoms: C_2  and  C_3 
REMARK    2  A    between atoms: C_3  and  N_4 
REMARK       I    between atoms: N_4  and  C_5 
REMARK    3  A    between atoms: C_7  and  C_5 
REMARK    4  A    between atoms: C_9  and  C_12 
REMARK    5  A    between atoms: C_15  and  C_18 
REMARK    6  A    between atoms: C_18  and  N_19 
ROOT
HETATM    1  C   UNK N   1      33.355  18.095   7.535  0.00  0.00     0.084 C 
HETATM    2  C   UNK N   1      33.689  17.448   6.202  0.00  0.00     0.062 C 
HETATM    3  C   UNK N   1      32.638  16.382   6.492  0.00  0.00     0.132 C 
HETATM    4  C   UNK N   1      32.523  16.883   7.912  0.00  0.00     0.062 C 
HETATM    5  F   UNK N   1      33.155  15.104   6.385  0.00  0.00    -0.238 F 
ENDROOT
BRANCH   3   6
HETATM    6  C   UNK N   1      31.333  16.570   5.758  0.00  0.00    -0.016 A 
HETATM    7  C   UNK N   1      31.289  16.478   4.365  0.00  0.00     0.053 A 
HETATM    8  C   UNK N   1      30.082  16.675   3.691  0.00  0.00     0.125 A 
HETATM    9  C   UNK N   1      28.907  16.943   4.409  0.00  0.00     0.009 A 
HETATM   10  F   UNK N   1      30.050  16.591   2.338  0.00  0.00    -0.205 F 
HETATM   11  C   UNK N   1      28.941  17.022   5.800  0.00  0.00     0.012 A 
HETATM   12  C   UNK N   1      30.148  16.844   6.469  0.00  0.00     0.011 A 
BRANCH   9  13
HETATM   13  C   UNK N   1      27.619  17.129   3.678  0.00  0.00     0.314 C 
BRANCH  13  14
HETATM   14  N   UNK N   1      26.673  16.043   3.951  0.00  0.00     0.092 N 
HETATM   15  C   UNK N   1      27.266  14.762   3.569  0.00  0.00     0.273 C 
HETATM   16  C   UNK N   1      27.081  14.590   2.075  0.00  0.00     0.032 C 
HETATM   17  C   UNK N   1      25.953  15.528   1.716  0.00  0.00     0.032 C 
HETATM   18  C   UNK N   1      25.569  16.211   3.018  0.00  0.00     0.273 C 
ENDBRANCH  13  14
ENDBRANCH   9  13
ENDBRANCH   3   6
BRANCH   1  19
HETATM   19  C   UNK N   1      34.396  18.196   8.588  0.00  0.00     0.222 C 
HETATM   20  N   UNK N   1      34.374  17.246   9.544  0.00  0.00    -0.360 N 
HETATM   21  H   UNK N   1      33.559  16.700   9.628  0.00  0.00     0.162 HD
HETATM   22  O   UNK N   1      35.315  19.004   8.513  0.00  0.00    -0.273 OA
BRANCH  20  23
HETATM   23  C   UNK N   1      35.454  16.974  10.447  0.00  0.00     0.126 C 
BRANCH  23  24
HETATM   24  C   UNK N   1      35.634  15.459  10.480  0.00  0.00    -0.005 C 
HETATM   25  C   UNK N   1      34.528  14.808  11.275  0.00  0.00     0.011 C 
HETATM   26  C   UNK N   1      35.663  14.872   9.076  0.00  0.00     0.011 C 
ENDBRANCH  23  24
ENDBRANCH  20  23
ENDBRANCH   1  19
TORSDOF 6
ENDMDL
MODEL 6
REMARK VINA RESULT:      -6.7      3.545      5.682
REMARK  6 active torsions:
REMARK  status: ('A' for Active; 'I' for Inactive)
REMARK    1  A    between atoms: C_2  and  C_3 
REMARK    2  A    between atoms: C_3  and  N_4 
REMARK       I    between atoms: N_4  and  C_5 
REMARK    3  A    between atoms: C_7  and  C_5 
REMARK    4  A    between atoms: C_9  and  C_12 
REMARK    5  A    between atoms: C_15  and  C_18 
REMARK    6  A    between atoms: C_18  and  N_19 
ROOT
HETATM    1  C   UNK N   1      35.568  14.946  12.149  0.00  0.00     0.084 C 
HETATM    2  C   UNK N   1      36.236  15.638  10.973  0.00  0.00     0.062 C 
HETATM    3  C   UNK N   1      35.341  14.836  10.034  0.00  0.00     0.132 C 
HETATM    4  C   UNK N   1      34.894  13.978  11.193  0.00  0.00     0.062 C 
HETATM    5  F   UNK N   1      36.073  14.155   9.078  0.00  0.00    -0.238 F 
ENDROOT
BRANCH   3   6
HETATM    6  C   UNK N   1      34.175  15.607   9.466  0.00  0.00    -0.016 A 
HETATM    7  C   UNK N   1      34.350  16.915   9.010  0.00  0.00     0.053 A 
HETATM    8  C   UNK N   1      33.261  17.630   8.506  0.00  0.00     0.125 A 
HETATM    9  C   UNK N   1      31.995  17.031   8.436  0.00  0.00     0.009 A 
HETATM   10  F   UNK N   1      33.439  18.901   8.071  0.00  0.00    -0.205 F 
HETATM   11  C   UNK N   1      31.815  15.721   8.877  0.00  0.00     0.012 A 
HETATM   12  C   UNK N   1      32.897  15.017   9.396  0.00  0.00     0.011 A 
BRANCH   9  13
HETATM   13  C   UNK N   1      30.843  17.798   7.876  0.00  0.00     0.314 C 
BRANCH  13  14
HETATM   14  N   UNK N   1      29.557  17.184   8.220  0.00  0.00     0.092 N 
HETATM   15  C   UNK N   1      28.762  16.986   7.009  0.00  0.00     0.273 C 
HETATM   16  C   UNK N   1      28.082  18.299   6.678  0.00  0.00     0.032 C 
HETATM   17  C   UNK N   1      28.097  19.078   7.972  0.00  0.00     0.032 C 
HETATM   18  C   UNK N   1      28.810  18.182   8.971  0.00  0.00     0.273 C 
ENDBRANCH  13  14
ENDBRANCH   9  13
ENDBRANCH   3   6
BRANCH   1  19
HETATM   19  C   UNK N   1      36.375  14.097  13.061  0.00  0.00     0.222 C 
HETATM   20  N   UNK N   1      36.392  14.461  14.358  0.00  0.00    -0.360 N 
HETATM   21  H   UNK N   1      36.082  15.368  14.582  0.00  0.00     0.162 HD
HETATM   22  O   UNK N   1      36.873  13.041  12.688  0.00  0.00    -0.273 OA
BRANCH  20  23
HETATM   23  C   UNK N   1      36.829  13.621  15.434  0.00  0.00     0.126 C 
BRANCH  23  24
HETATM   24  C   UNK N   1      35.586  12.933  15.993  0.00  0.00    -0.005 C 
HETATM   25  C   UNK N   1      35.801  11.443  16.094  0.00  0.00     0.011 C 
HETATM   26  C   UNK N   1      35.213  13.487  17.361  0.00  0.00     0.011 C 
ENDBRANCH  23  24
ENDBRANCH  20  23
ENDBRANCH   1  19
TORSDOF 6
ENDMDL
MODEL 7
REMARK VINA RESULT:      -6.7      2.761      9.412
REMARK  6 active torsions:
REMARK  status: ('A' for Active; 'I' for Inactive)
REMARK    1  A    between atoms: C_2  and  C_3 
REMARK    2  A    between atoms: C_3  and  N_4 
REMARK       I    between atoms: N_4  and  C_5 
REMARK    3  A    between atoms: C_7  and  C_5 
REMARK    4  A    between atoms: C_9  and  C_12 
REMARK    5  A    between atoms: C_15  and  C_18 
REMARK    6  A    between atoms: C_18  and  N_19 
ROOT
HETATM    1  C   UNK N   1      30.052  17.178   8.219  0.00  0.00     0.084 C 
HETATM    2  C   UNK N   1      30.901  16.499   7.159  0.00  0.00     0.062 C 
HETATM    3  C   UNK N   1      32.119  17.234   7.710  0.00  0.00     0.132 C 
HETATM    4  C   UNK N   1      31.215  18.090   8.564  0.00  0.00     0.062 C 
HETATM    5  F   UNK N   1      32.790  17.933   6.723  0.00  0.00    -0.238 F 
ENDROOT
BRANCH   3   6
HETATM    6  C   UNK N   1      33.023  16.391   8.575  0.00  0.00    -0.016 A 
HETATM    7  C   UNK N   1      34.061  16.985   9.297  0.00  0.00     0.053 A 
HETATM    8  C   UNK N   1      34.907  16.196  10.079  0.00  0.00     0.125 A 
HETATM    9  C   UNK N   1      34.706  14.810  10.160  0.00  0.00     0.009 A 
HETATM   10  F   UNK N   1      35.916  16.780  10.770  0.00  0.00    -0.205 F 
HETATM   11  C   UNK N   1      33.664  14.212   9.454  0.00  0.00     0.012 A 
HETATM   12  C   UNK N   1      32.832  14.998   8.660  0.00  0.00     0.011 A 
BRANCH   9  13
HETATM   13  C   UNK N   1      35.604  13.981  11.016  0.00  0.00     0.314 C 
BRANCH  13  14
HETATM   14  N   UNK N   1      34.976  13.637  12.296  0.00  0.00     0.092 N 
HETATM   15  C   UNK N   1      35.859  14.015  13.398  0.00  0.00     0.273 C 
HETATM   16  C   UNK N   1      36.886  12.915  13.572  0.00  0.00     0.032 C 
HETATM   17  C   UNK N   1      36.272  11.706  12.906  0.00  0.00     0.032 C 
HETATM   18  C   UNK N   1      34.936  12.184  12.361  0.00  0.00     0.273 C 
ENDBRANCH  13  14
ENDBRANCH   9  13
ENDBRANCH   3   6
BRANCH   1  19
HETATM   19  C   UNK N   1      28.950  18.086   7.813  0.00  0.00     0.222 C 
HETATM   20  N   UNK N   1      28.655  18.118   6.499  0.00  0.00    -0.360 N 
HETATM   21  H   UNK N   1      29.314  17.739   5.873  0.00  0.00     0.162 HD
HETATM   22  O   UNK N   1      28.249  18.661   8.639  0.00  0.00    -0.273 OA
BRANCH  20  23
HETATM   23  C   UNK N   1      27.450  18.664   5.948  0.00  0.00     0.126 C 
BRANCH  23  24
HETATM   24  C   UNK N   1      27.837  19.952   5.225  0.00  0.00    -0.005 C 
HETATM   25  C   UNK N   1      27.109  20.063   3.908  0.00  0.00     0.011 C 
HETATM   26  C   UNK N   1      27.537  21.178   6.075  0.00  0.00     0.011 C 
ENDBRANCH  23  24
ENDBRANCH  20  23
ENDBRANCH   1  19
TORSDOF 6
ENDMDL
MODEL 8
REMARK VINA RESULT:      -6.4      5.599      9.533
REMARK  6 active torsions:
REMARK  status: ('A' for Active; 'I' for Inactive)
REMARK    1  A    between atoms: C_2  and  C_3 
REMARK    2  A    between atoms: C_3  and  N_4 
REMARK       I    between atoms: N_4  and  C_5 
REMARK    3  A    between atoms: C_7  and  C_5 
REMARK    4  A    between atoms: C_9  and  C_12 
REMARK    5  A    between atoms: C_15  and  C_18 
REMARK    6  A    between atoms: C_18  and  N_19 
ROOT
HETATM    1  C   UNK N   1      35.440  13.887  16.131  0.00  0.00     0.084 C 
HETATM    2  C   UNK N   1      36.785  13.791  15.432  0.00  0.00     0.062 C 
HETATM    3  C   UNK N   1      36.149  12.861  14.405  0.00  0.00     0.132 C 
HETATM    4  C   UNK N   1      34.912  12.759  15.265  0.00  0.00     0.062 C 
HETATM    5  F   UNK N   1      36.848  11.674  14.280  0.00  0.00    -0.238 F 
ENDROOT
BRANCH   3   6
HETATM    6  C   UNK N   1      35.822  13.513  13.084  0.00  0.00    -0.016 A 
HETATM    7  C   UNK N   1      35.207  12.777  12.069  0.00  0.00     0.053 A 
HETATM    8  C   UNK N   1      34.928  13.381  10.841  0.00  0.00     0.125 A 
HETATM    9  C   UNK N   1      35.243  14.731  10.630  0.00  0.00     0.009 A 
HETATM   10  F   UNK N   1      34.336  12.657   9.859  0.00  0.00    -0.205 F 
HETATM   11  C   UNK N   1      35.845  15.475  11.643  0.00  0.00     0.012 A 
HETATM   12  C   UNK N   1      36.139  14.867  12.860  0.00  0.00     0.011 A 
BRANCH   9  13
HETATM   13  C   UNK N   1      34.920  15.370   9.320  0.00  0.00     0.314 C 
BRANCH  13  14
HETATM   14  N   UNK N   1      34.003  16.504   9.477  0.00  0.00     0.092 N 
HETATM   15  C   UNK N   1      32.742  16.220   8.794  0.00  0.00     0.273 C 
HETATM   16  C   UNK N   1      32.927  16.533   7.323  0.00  0.00     0.032 C 
HETATM   17  C   UNK N   1      34.120  17.458   7.273  0.00  0.00     0.032 C 
HETATM   18  C   UNK N   1      34.573  17.606   8.716  0.00  0.00     0.273 C 
ENDBRANCH  13  14
ENDBRANCH   9  13
ENDBRANCH   3   6
BRANCH   1  19
HETATM   19  C   UNK N   1      35.298  13.406  17.528  0.00  0.00     0.222 C 
HETATM   20  N   UNK N   1      35.166  12.075  17.692  0.00  0.00    -0.360 N 
HETATM   21  H   UNK N   1      34.937  11.537  16.899  0.00  0.00     0.162 HD
HETATM   22  O   UNK N   1      35.443  14.156  18.487  0.00  0.00    -0.273 OA
BRANCH  20  23
HETATM   23  C   UNK N   1      35.336  11.387  18.938  0.00  0.00     0.126 C 
BRANCH  23  24
HETATM   24  C   UNK N   1      35.760   9.960  18.602  0.00  0.00    -0.005 C 
HETATM   25  C   UNK N   1      34.561   9.045  18.552  0.00  0.00     0.011 C 
HETATM   26  C   UNK N   1      36.502   9.898  17.275  0.00  0.00     0.011 C 
ENDBRANCH  23  24
ENDBRANCH  20  23
ENDBRANCH   1  19
TORSDOF 6
ENDMDL
MODEL 9
REMARK VINA RESULT:      -6.4      4.357      6.446
REMARK  6 active torsions:
REMARK  status: ('A' for Active; 'I' for Inactive)
REMARK    1  A    between atoms: C_2  and  C_3 
REMARK    2  A    between atoms: C_3  and  N_4 
REMARK       I    between atoms: N_4  and  C_5 
REMARK    3  A    between atoms: C_7  and  C_5 
REMARK    4  A    between atoms: C_9  and  C_12 
REMARK    5  A    between atoms: C_15  and  C_18 
REMARK    6  A    between atoms: C_18  and  N_19 
ROOT
HETATM    1  C   UNK N   1      36.035  13.275  10.843  0.00  0.00     0.084 C 
HETATM    2  C   UNK N   1      34.804  14.070  11.242  0.00  0.00     0.062 C 
HETATM    3  C   UNK N   1      35.504  15.336  10.759  0.00  0.00     0.132 C 
HETATM    4  C   UNK N   1      36.798  14.569  10.628  0.00  0.00     0.062 C 
HETATM    5  F   UNK N   1      35.526  16.318  11.733  0.00  0.00    -0.238 F 
ENDROOT
BRANCH   3   6
HETATM    6  C   UNK N   1      35.045  15.833   9.410  0.00  0.00    -0.016 A 
HETATM    7  C   UNK N   1      34.360  17.045   9.301  0.00  0.00     0.053 A 
HETATM    8  C   UNK N   1      33.920  17.488   8.052  0.00  0.00     0.125 A 
HETATM    9  C   UNK N   1      34.181  16.730   6.902  0.00  0.00     0.009 A 
HETATM   10  F   UNK N   1      33.250  18.663   7.957  0.00  0.00    -0.205 F 
HETATM   11  C   UNK N   1      34.876  15.526   7.000  0.00  0.00     0.012 A 
HETATM   12  C   UNK N   1      35.298  15.077   8.248  0.00  0.00     0.011 A 
BRANCH   9  13
HETATM   13  C   UNK N   1      33.724  17.225   5.570  0.00  0.00     0.314 C 
BRANCH  13  14
HETATM   14  N   UNK N   1      32.304  16.942   5.339  0.00  0.00     0.092 N 
HETATM   15  C   UNK N   1      32.142  15.567   4.870  0.00  0.00     0.273 C 
HETATM   16  C   UNK N   1      32.421  15.546   3.380  0.00  0.00     0.032 C 
HETATM   17  C   UNK N   1      32.243  16.979   2.936  0.00  0.00     0.032 C 
HETATM   18  C   UNK N   1      31.900  17.751   4.199  0.00  0.00     0.273 C 
ENDBRANCH  13  14
ENDBRANCH   9  13
ENDBRANCH   3   6
BRANCH   1  19
HETATM   19  C   UNK N   1      36.803  12.536  11.875  0.00  0.00     0.222 C 
HETATM   20  N   UNK N   1      36.861  13.102  13.097  0.00  0.00    -0.360 N 
HETATM   21  H   UNK N   1      36.609  14.050  13.174  0.00  0.00     0.162 HD
HETATM   22  O   UNK N   1      37.231  11.405  11.675  0.00  0.00    -0.273 OA
BRANCH  20  23
HETATM   23  C   UNK N   1      37.264  12.420  14.292  0.00  0.00     0.126 C 
BRANCH  23  24
HETATM   24  C   UNK N   1      36.614  13.153  15.462  0.00  0.00    -0.005 C 
HETATM   25  C   UNK N   1      37.028  14.605  15.477  0.00  0.00     0.011 C 
HETATM   26  C   UNK N   1      35.096  13.059  15.403  0.00  0.00     0.011 C 
ENDBRANCH  23  24
ENDBRANCH  20  23
ENDBRANCH   1  19
TORSDOF 6
ENDMDL
