MODEL 1
REMARK VINA RESULT:      -6.0      0.000      0.000
REMARK  1 active torsions:
REMARK  status: ('A' for Active; 'I' for Inactive)
REMARK    1  A    between atoms: N_14  and  C_10 
ROOT
HETATM    1  C   UNK N   1      20.218  20.204   1.957  0.00  0.00     0.001 A 
HETATM    2  C   UNK N   1      19.758  19.173   2.795  0.00  0.00     0.001 A 
HETATM    3  C   UNK N   1      21.559  20.613   2.011  0.00  0.00     0.018 A 
HETATM    4  C   UNK N   1      20.637  18.548   3.690  0.00  0.00     0.013 A 
HETATM    5  C   UNK N   1      22.419  19.976   2.910  0.00  0.00     0.045 A 
HETATM    6  C   UNK N   1      21.965  18.967   3.729  0.00  0.00    -0.009 A 
HETATM    7  C   UNK N   1      23.753  20.241   3.094  0.00  0.00     0.278 A 
HETATM    8  N   UNK N   1      24.361  19.456   4.042  0.00  0.00    -0.210 N 
HETATM    9  O   UNK N   1      24.347  21.099   2.462  0.00  0.00    -0.265 OA
HETATM   10 Se   UNK N   1      23.232  18.269   4.814  0.00  0.00     0.000 Se
ENDROOT
BRANCH   8  11
HETATM   11  C   UNK N   1      25.752  19.518   4.430  0.00  0.00     0.060 A 
HETATM   12  C   UNK N   1      26.231  20.507   5.305  0.00  0.00     0.031 A 
HETATM   13  C   UNK N   1      27.583  20.542   5.664  0.00  0.00     0.002 A 
HETATM   14  C   UNK N   1      28.467  19.589   5.152  0.00  0.00     0.000 A 
HETATM   15  C   UNK N   1      28.003  18.603   4.280  0.00  0.00     0.002 A 
HETATM   16  C   UNK N   1      26.656  18.568   3.924  0.00  0.00     0.031 A 
ENDBRANCH   8  11
TORSDOF 1
ENDMDL
MODEL 2
REMARK VINA RESULT:      -5.9     10.259     11.016
REMARK  1 active torsions:
REMARK  status: ('A' for Active; 'I' for Inactive)
REMARK    1  A    between atoms: N_14  and  C_10 
ROOT
HETATM    1  C   UNK N   1      25.681  28.239  -3.764  0.00  0.00     0.001 A 
HETATM    2  C   UNK N   1      26.577  28.960  -4.574  0.00  0.00     0.001 A 
HETATM    3  C   UNK N   1      25.954  26.906  -3.419  0.00  0.00     0.018 A 
HETATM    4  C   UNK N   1      27.749  28.350  -5.042  0.00  0.00     0.013 A 
HETATM    5  C   UNK N   1      27.129  26.318  -3.897  0.00  0.00     0.045 A 
HETATM    6  C   UNK N   1      28.004  27.027  -4.689  0.00  0.00    -0.009 A 
HETATM    7  C   UNK N   1      27.558  25.036  -3.659  0.00  0.00     0.278 A 
HETATM    8  N   UNK N   1      28.757  24.721  -4.247  0.00  0.00    -0.210 N 
HETATM    9  O   UNK N   1      26.925  24.247  -2.976  0.00  0.00    -0.265 OA
HETATM   10 Se   UNK N   1      29.465  26.090  -5.198  0.00  0.00     0.000 Se
ENDROOT
BRANCH   8  11
HETATM   11  C   UNK N   1      29.439  23.450  -4.156  0.00  0.00     0.060 A 
HETATM   12  C   UNK N   1      30.134  23.066  -2.997  0.00  0.00     0.031 A 
HETATM   13  C   UNK N   1      30.783  21.829  -2.938  0.00  0.00     0.002 A 
HETATM   14  C   UNK N   1      30.747  20.966  -4.036  0.00  0.00     0.000 A 
HETATM   15  C   UNK N   1      30.063  21.337  -5.194  0.00  0.00     0.002 A 
HETATM   16  C   UNK N   1      29.414  22.570  -5.252  0.00  0.00     0.031 A 
ENDBRANCH   8  11
TORSDOF 1
ENDMDL
MODEL 3
REMARK VINA RESULT:      -5.8     16.492     18.514
REMARK  1 active torsions:
REMARK  status: ('A' for Active; 'I' for Inactive)
REMARK    1  A    between atoms: N_14  and  C_10 
ROOT
HETATM    1  C   UNK N   1      35.173  13.534  18.956  0.00  0.00     0.001 A 
HETATM    2  C   UNK N   1      35.354  12.278  19.562  0.00  0.00     0.001 A 
HETATM    3  C   UNK N   1      35.055  13.635  17.561  0.00  0.00     0.018 A 
HETATM    4  C   UNK N   1      35.418  11.119  18.776  0.00  0.00     0.013 A 
HETATM    5  C   UNK N   1      35.121  12.467  16.796  0.00  0.00     0.045 A 
HETATM    6  C   UNK N   1      35.297  11.239  17.393  0.00  0.00    -0.009 A 
HETATM    7  C   UNK N   1      35.020  12.377  15.430  0.00  0.00     0.278 A 
HETATM    8  N   UNK N   1      35.112  11.099  14.939  0.00  0.00    -0.210 N 
HETATM    9  O   UNK N   1      34.857  13.353  14.717  0.00  0.00    -0.265 OA
HETATM   10 Se   UNK N   1      35.351   9.853  16.232  0.00  0.00     0.000 Se
ENDROOT
BRANCH   8  11
HETATM   11  C   UNK N   1      35.035  10.717  13.547  0.00  0.00     0.060 A 
HETATM   12  C   UNK N   1      36.162  10.743  12.709  0.00  0.00     0.031 A 
HETATM   13  C   UNK N   1      36.057  10.366  11.366  0.00  0.00     0.002 A 
HETATM   14  C   UNK N   1      34.824   9.962  10.848  0.00  0.00     0.000 A 
HETATM   15  C   UNK N   1      33.696   9.935  11.669  0.00  0.00     0.002 A 
HETATM   16  C   UNK N   1      33.802  10.308  13.008  0.00  0.00     0.031 A 
ENDBRANCH   8  11
TORSDOF 1
ENDMDL
MODEL 4
REMARK VINA RESULT:      -5.8      7.749      9.817
REMARK  1 active torsions:
REMARK  status: ('A' for Active; 'I' for Inactive)
REMARK    1  A    between atoms: N_14  and  C_10 
ROOT
HETATM    1  C   UNK N   1      23.064  11.938  12.120  0.00  0.00     0.001 A 
HETATM    2  C   UNK N   1      24.322  11.987  11.495  0.00  0.00     0.001 A 
HETATM    3  C   UNK N   1      21.922  12.402  11.448  0.00  0.00     0.018 A 
HETATM    4  C   UNK N   1      24.444  12.499  10.196  0.00  0.00     0.013 A 
HETATM    5  C   UNK N   1      22.066  12.910  10.154  0.00  0.00     0.045 A 
HETATM    6  C   UNK N   1      23.300  12.955   9.545  0.00  0.00    -0.009 A 
HETATM    7  C   UNK N   1      21.066  13.399   9.351  0.00  0.00     0.278 A 
HETATM    8  N   UNK N   1      21.489  13.829   8.118  0.00  0.00    -0.210 N 
HETATM    9  O   UNK N   1      19.900  13.443   9.706  0.00  0.00    -0.265 OA
HETATM   10 Se   UNK N   1      23.273  13.640   7.871  0.00  0.00     0.000 Se
ENDROOT
BRANCH   8  11
HETATM   11  C   UNK N   1      20.651  14.381   7.078  0.00  0.00     0.060 A 
HETATM   12  C   UNK N   1      20.187  15.706   7.130  0.00  0.00     0.031 A 
HETATM   13  C   UNK N   1      19.378  16.215   6.109  0.00  0.00     0.002 A 
HETATM   14  C   UNK N   1      19.024  15.404   5.027  0.00  0.00     0.000 A 
HETATM   15  C   UNK N   1      19.476  14.085   4.966  0.00  0.00     0.002 A 
HETATM   16  C   UNK N   1      20.284  13.579   5.984  0.00  0.00     0.031 A 
ENDBRANCH   8  11
TORSDOF 1
ENDMDL
MODEL 5
REMARK VINA RESULT:      -5.8      3.342      7.221
REMARK  1 active torsions:
REMARK  status: ('A' for Active; 'I' for Inactive)
REMARK    1  A    between atoms: N_14  and  C_10 
ROOT
HETATM    1  C   UNK N   1      30.527  17.728   8.980  0.00  0.00     0.001 A 
HETATM    2  C   UNK N   1      30.992  16.695   8.147  0.00  0.00     0.001 A 
HETATM    3  C   UNK N   1      29.488  18.568   8.550  0.00  0.00     0.018 A 
HETATM    4  C   UNK N   1      30.421  16.497   6.884  0.00  0.00     0.013 A 
HETATM    5  C   UNK N   1      28.931  18.353   7.285  0.00  0.00     0.045 A 
HETATM    6  C   UNK N   1      29.389  17.340   6.474  0.00  0.00    -0.009 A 
HETATM    7  C   UNK N   1      27.913  19.068   6.708  0.00  0.00     0.278 A 
HETATM    8  N   UNK N   1      27.557  18.636   5.455  0.00  0.00    -0.210 N 
HETATM    9  O   UNK N   1      27.368  20.006   7.266  0.00  0.00    -0.265 OA
HETATM   10 Se   UNK N   1      28.537  17.224   4.883  0.00  0.00     0.000 Se
ENDROOT
BRANCH   8  11
HETATM   11  C   UNK N   1      26.517  19.201   4.625  0.00  0.00     0.060 A 
HETATM   12  C   UNK N   1      25.168  18.843   4.785  0.00  0.00     0.031 A 
HETATM   13  C   UNK N   1      24.183  19.407   3.968  0.00  0.00     0.002 A 
HETATM   14  C   UNK N   1      24.537  20.333   2.983  0.00  0.00     0.000 A 
HETATM   15  C   UNK N   1      25.874  20.694   2.813  0.00  0.00     0.002 A 
HETATM   16  C   UNK N   1      26.855  20.132   3.628  0.00  0.00     0.031 A 
ENDBRANCH   8  11
TORSDOF 1
ENDMDL
MODEL 6
REMARK VINA RESULT:      -5.8     10.094     11.925
REMARK  1 active torsions:
REMARK  status: ('A' for Active; 'I' for Inactive)
REMARK    1  A    between atoms: N_14  and  C_10 
ROOT
HETATM    1  C   UNK N   1      31.189  21.903  -2.912  0.00  0.00     0.001 A 
HETATM    2  C   UNK N   1      32.064  22.453  -3.865  0.00  0.00     0.001 A 
HETATM    3  C   UNK N   1      29.904  22.440  -2.739  0.00  0.00     0.018 A 
HETATM    4  C   UNK N   1      31.658  23.542  -4.648  0.00  0.00     0.013 A 
HETATM    5  C   UNK N   1      29.519  23.527  -3.530  0.00  0.00     0.045 A 
HETATM    6  C   UNK N   1      30.379  24.062  -4.462  0.00  0.00    -0.009 A 
HETATM    7  C   UNK N   1      28.309  24.172  -3.500  0.00  0.00     0.278 A 
HETATM    8  N   UNK N   1      28.197  25.207  -4.395  0.00  0.00    -0.210 N 
HETATM    9  O   UNK N   1      27.408  23.847  -2.744  0.00  0.00    -0.265 OA
HETATM   10 Se   UNK N   1      29.692  25.456  -5.387  0.00  0.00     0.000 Se
ENDROOT
BRANCH   8  11
HETATM   11  C   UNK N   1      27.036  26.048  -4.579  0.00  0.00     0.060 A 
HETATM   12  C   UNK N   1      26.708  27.064  -3.665  0.00  0.00     0.031 A 
HETATM   13  C   UNK N   1      25.579  27.864  -3.870  0.00  0.00     0.002 A 
HETATM   14  C   UNK N   1      24.767  27.655  -4.988  0.00  0.00     0.000 A 
HETATM   15  C   UNK N   1      25.081  26.647  -5.900  0.00  0.00     0.002 A 
HETATM   16  C   UNK N   1      26.208  25.851  -5.697  0.00  0.00     0.031 A 
ENDBRANCH   8  11
TORSDOF 1
ENDMDL
MODEL 7
REMARK VINA RESULT:      -5.6     15.704     17.977
REMARK  1 active torsions:
REMARK  status: ('A' for Active; 'I' for Inactive)
REMARK    1  A    between atoms: N_14  and  C_10 
ROOT
HETATM    1  C   UNK N   1      36.175  13.893  11.095  0.00  0.00     0.001 A 
HETATM    2  C   UNK N   1      35.311  12.848  10.723  0.00  0.00     0.001 A 
HETATM    3  C   UNK N   1      36.471  14.116  12.449  0.00  0.00     0.018 A 
HETATM    4  C   UNK N   1      34.741  12.023  11.701  0.00  0.00     0.013 A 
HETATM    5  C   UNK N   1      35.892  13.281  13.409  0.00  0.00     0.045 A 
HETATM    6  C   UNK N   1      35.047  12.259  13.039  0.00  0.00    -0.009 A 
HETATM    7  C   UNK N   1      36.071  13.348  14.767  0.00  0.00     0.278 A 
HETATM    8  N   UNK N   1      35.384  12.396  15.477  0.00  0.00    -0.210 N 
HETATM    9  O   UNK N   1      36.786  14.184  15.296  0.00  0.00    -0.265 OA
HETATM   10 Se   UNK N   1      34.407  11.291  14.427  0.00  0.00     0.000 Se
ENDROOT
BRANCH   8  11
HETATM   11  C   UNK N   1      35.397  12.234  16.914  0.00  0.00     0.060 A 
HETATM   12  C   UNK N   1      35.101  13.300  17.780  0.00  0.00     0.031 A 
HETATM   13  C   UNK N   1      35.119  13.114  19.166  0.00  0.00     0.002 A 
HETATM   14  C   UNK N   1      35.436  11.861  19.699  0.00  0.00     0.000 A 
HETATM   15  C   UNK N   1      35.735  10.796  18.849  0.00  0.00     0.002 A 
HETATM   16  C   UNK N   1      35.714  10.982  17.467  0.00  0.00     0.031 A 
ENDBRANCH   8  11
TORSDOF 1
ENDMDL
MODEL 8
REMARK VINA RESULT:      -5.6      3.914      5.383
REMARK  1 active torsions:
REMARK  status: ('A' for Active; 'I' for Inactive)
REMARK    1  A    between atoms: N_14  and  C_10 
ROOT
HETATM    1  C   UNK N   1      19.990  15.420   9.049  0.00  0.00     0.001 A 
HETATM    2  C   UNK N   1      20.580  14.244   8.553  0.00  0.00     0.001 A 
HETATM    3  C   UNK N   1      20.242  16.654   8.427  0.00  0.00     0.018 A 
HETATM    4  C   UNK N   1      21.423  14.296   7.435  0.00  0.00     0.013 A 
HETATM    5  C   UNK N   1      21.087  16.683   7.313  0.00  0.00     0.045 A 
HETATM    6  C   UNK N   1      21.661  15.528   6.831  0.00  0.00    -0.009 A 
HETATM    7  C   UNK N   1      21.439  17.789   6.583  0.00  0.00     0.278 A 
HETATM    8  N   UNK N   1      22.280  17.529   5.530  0.00  0.00    -0.210 N 
HETATM    9  O   UNK N   1      21.032  18.909   6.847  0.00  0.00    -0.265 OA
HETATM   10 Se   UNK N   1      22.714  15.777   5.382  0.00  0.00     0.000 Se
ENDROOT
BRANCH   8  11
HETATM   11  C   UNK N   1      22.801  18.503   4.599  0.00  0.00     0.060 A 
HETATM   12  C   UNK N   1      21.955  19.262   3.773  0.00  0.00     0.031 A 
HETATM   13  C   UNK N   1      22.488  20.199   2.882  0.00  0.00     0.002 A 
HETATM   14  C   UNK N   1      23.871  20.385   2.806  0.00  0.00     0.000 A 
HETATM   15  C   UNK N   1      24.722  19.636   3.619  0.00  0.00     0.002 A 
HETATM   16  C   UNK N   1      24.190  18.703   4.508  0.00  0.00     0.031 A 
ENDBRANCH   8  11
TORSDOF 1
ENDMDL
MODEL 9
REMARK VINA RESULT:      -5.6      8.755     12.361
REMARK  1 active torsions:
REMARK  status: ('A' for Active; 'I' for Inactive)
REMARK    1  A    between atoms: N_14  and  C_10 
ROOT
HETATM    1  C   UNK N   1      35.808  15.666  11.907  0.00  0.00     0.001 A 
HETATM    2  C   UNK N   1      35.442  14.311  11.819  0.00  0.00     0.001 A 
HETATM    3  C   UNK N   1      35.405  16.573  10.914  0.00  0.00     0.018 A 
HETATM    4  C   UNK N   1      34.672  13.859  10.739  0.00  0.00     0.013 A 
HETATM    5  C   UNK N   1      34.637  16.100   9.846  0.00  0.00     0.045 A 
HETATM    6  C   UNK N   1      34.280  14.773   9.764  0.00  0.00    -0.009 A 
HETATM    7  C   UNK N   1      34.153  16.839   8.795  0.00  0.00     0.278 A 
HETATM    8  N   UNK N   1      33.419  16.119   7.887  0.00  0.00    -0.210 N 
HETATM    9  O   UNK N   1      34.357  18.037   8.685  0.00  0.00    -0.265 OA
HETATM   10 Se   UNK N   1      33.283  14.364   8.312  0.00  0.00     0.000 Se
ENDROOT
BRANCH   8  11
HETATM   11  C   UNK N   1      32.792  16.644   6.695  0.00  0.00     0.060 A 
HETATM   12  C   UNK N   1      31.397  16.779   6.593  0.00  0.00     0.031 A 
HETATM   13  C   UNK N   1      30.818  17.292   5.428  0.00  0.00     0.002 A 
HETATM   14  C   UNK N   1      31.627  17.673   4.354  0.00  0.00     0.000 A 
HETATM   15  C   UNK N   1      33.013  17.541   4.442  0.00  0.00     0.002 A 
HETATM   16  C   UNK N   1      33.590  17.032   5.605  0.00  0.00     0.031 A 
ENDBRANCH   8  11
TORSDOF 1
ENDMDL
