MODEL 1
REMARK VINA RESULT:      -8.1      0.000      0.000
REMARK  4 active torsions:
REMARK  status: ('A' for Active; 'I' for Inactive)
REMARK    1  A    between atoms: C_3  and  C_9 
REMARK    2  A    between atoms: C_11  and  N_17 
REMARK    3  A    between atoms: C_14  and  O_15 
REMARK       I    between atoms: N_17  and  C_18 
REMARK       I    between atoms: C_18  and  N_20 
REMARK    4  A    between atoms: N_20  and  C_21 
ROOT
HETATM    1  C   UNK N   1      36.322  13.838  12.798  0.00  0.00     0.029 A 
HETATM    2  C   UNK N   1      35.691  15.036  12.408  0.00  0.00     0.046 A 
HETATM    3  C   UNK N   1      35.843  15.572  11.139  0.00  0.00     0.037 A 
HETATM    4  C   UNK N   1      36.673  14.934  10.218  0.00  0.00     0.032 A 
HETATM    5  C   UNK N   1      37.327  13.769  10.560  0.00  0.00     0.040 A 
HETATM    6  C   UNK N   1      37.163  13.191  11.829  0.00  0.00     0.081 A 
ENDROOT
BRANCH   3   7
HETATM    7  N   UNK N   1      35.125  16.729  10.740  0.00  0.00    -0.309 N 
HETATM    8  C   UNK N   1      34.165  16.614   9.791  0.00  0.00     0.325 C 
HETATM    9  O   UNK N   1      33.687  15.511   9.546  0.00  0.00    -0.247 OA
HETATM   10  N   UNK N   1      33.777  17.695   9.072  0.00  0.00    -0.306 N 
HETATM   11  H   UNK N   1      33.956  18.595   9.428  0.00  0.00     0.171 HD
HETATM   12  H   UNK N   1      35.322  17.604  11.148  0.00  0.00     0.170 HD
BRANCH  10  13
HETATM   13  C   UNK N   1      33.116  17.565   7.814  0.00  0.00     0.075 A 
HETATM   14  C   UNK N   1      33.871  17.557   6.635  0.00  0.00     0.036 A 
HETATM   15  C   UNK N   1      33.239  17.394   5.397  0.00  0.00     0.044 A 
HETATM   16  C   UNK N   1      31.853  17.227   5.330  0.00  0.00     0.119 A 
HETATM   17  C   UNK N   1      31.096  17.205   6.496  0.00  0.00     0.086 A 
HETATM   18  F   UNK N   1      31.240  17.062   4.134  0.00  0.00    -0.206 F 
HETATM   19  C   UNK N   1      31.711  17.366   7.733  0.00  0.00     0.146 A 
HETATM   20  F   UNK N   1      30.935  17.274   8.843  0.00  0.00    -0.204 F 
ENDBRANCH  10  13
ENDBRANCH   3   7
BRANCH   1  21
HETATM   21  C   UNK N   1      36.003  13.341  14.200  0.00  0.00     0.082 A 
HETATM   22  N   UNK N   1      36.395  13.840  15.407  0.00  0.00    -0.295 N 
HETATM   23  C   UNK N   1      37.200  14.998  15.736  0.00  0.00     0.178 C 
HETATM   24  N   UNK N   1      35.899  13.091  16.378  0.00  0.00    -0.308 N 
HETATM   25  C   UNK N   1      35.178  12.093  15.843  0.00  0.00     0.129 A 
ATOM     26  HN  UNK N   1      36.043  13.247  17.376  1.00  0.00     0.186 HD
HETATM   27  C   UNK N   1      35.214  12.214  14.474  0.00  0.00     0.057 A 
HETATM   28 Br   UNK N   1      34.310  10.976  13.316  0.00  0.00    -0.047 Br
ENDBRANCH   1  21
BRANCH   6  29
HETATM   29  O   UNK N   1      37.789  12.026  12.087  0.00  0.00    -0.355 OA
HETATM   30  C   UNK N   1      37.617  10.878  11.340  0.00  0.00     0.210 C 
ENDBRANCH   6  29
TORSDOF 4
ENDMDL
MODEL 2
REMARK VINA RESULT:      -7.7      1.602      2.120
REMARK  4 active torsions:
REMARK  status: ('A' for Active; 'I' for Inactive)
REMARK    1  A    between atoms: C_3  and  C_9 
REMARK    2  A    between atoms: C_11  and  N_17 
REMARK    3  A    between atoms: C_14  and  O_15 
REMARK       I    between atoms: N_17  and  C_18 
REMARK       I    between atoms: C_18  and  N_20 
REMARK    4  A    between atoms: N_20  and  C_21 
ROOT
HETATM    1  C   UNK N   1      36.211  13.788  12.685  0.00  0.00     0.029 A 
HETATM    2  C   UNK N   1      35.562  14.981  12.308  0.00  0.00     0.046 A 
HETATM    3  C   UNK N   1      35.787  15.589  11.083  0.00  0.00     0.037 A 
HETATM    4  C   UNK N   1      36.710  15.032  10.198  0.00  0.00     0.032 A 
HETATM    5  C   UNK N   1      37.383  13.875  10.531  0.00  0.00     0.040 A 
HETATM    6  C   UNK N   1      37.147  13.225  11.752  0.00  0.00     0.081 A 
ENDROOT
BRANCH   3   7
HETATM    7  N   UNK N   1      35.055  16.739  10.688  0.00  0.00    -0.309 N 
HETATM    8  C   UNK N   1      33.985  16.589   9.871  0.00  0.00     0.325 C 
HETATM    9  O   UNK N   1      33.454  15.488   9.766  0.00  0.00    -0.247 OA
HETATM   10  N   UNK N   1      33.539  17.629   9.126  0.00  0.00    -0.306 N 
HETATM   11  H   UNK N   1      33.781  18.546   9.391  0.00  0.00     0.171 HD
HETATM   12  H   UNK N   1      35.321  17.633  11.005  0.00  0.00     0.170 HD
BRANCH  10  13
HETATM   13  C   UNK N   1      32.728  17.433   7.968  0.00  0.00     0.075 A 
HETATM   14  C   UNK N   1      31.334  17.430   8.094  0.00  0.00     0.036 A 
HETATM   15  C   UNK N   1      30.526  17.276   6.961  0.00  0.00     0.044 A 
HETATM   16  C   UNK N   1      31.106  17.135   5.696  0.00  0.00     0.119 A 
HETATM   17  C   UNK N   1      32.489  17.164   5.556  0.00  0.00     0.086 A 
HETATM   18  F   UNK N   1      30.327  16.993   4.598  0.00  0.00    -0.206 F 
HETATM   19  C   UNK N   1      33.303  17.318   6.673  0.00  0.00     0.146 A 
HETATM   20  F   UNK N   1      34.643  17.402   6.473  0.00  0.00    -0.204 F 
ENDBRANCH  10  13
ENDBRANCH   3   7
BRANCH   1  21
HETATM   21  C   UNK N   1      35.807  13.205  14.032  0.00  0.00     0.082 A 
HETATM   22  N   UNK N   1      35.032  12.118  14.308  0.00  0.00    -0.295 N 
HETATM   23  C   UNK N   1      34.382  11.171  13.427  0.00  0.00     0.178 C 
HETATM   24  N   UNK N   1      34.926  11.973  15.618  0.00  0.00    -0.308 N 
HETATM   25  C   UNK N   1      35.618  12.947  16.230  0.00  0.00     0.129 A 
ATOM     26  HN  UNK N   1      34.400  11.237  16.090  1.00  0.00     0.186 HD
HETATM   27  C   UNK N   1      36.192  13.744  15.268  0.00  0.00     0.057 A 
HETATM   28 Br   UNK N   1      37.271  15.269  15.717  0.00  0.00    -0.047 Br
ENDBRANCH   1  21
BRANCH   6  29
HETATM   29  O   UNK N   1      37.799  12.071  11.999  0.00  0.00    -0.355 OA
HETATM   30  C   UNK N   1      37.510  10.875  11.374  0.00  0.00     0.210 C 
ENDBRANCH   6  29
TORSDOF 4
ENDMDL
MODEL 3
REMARK VINA RESULT:      -7.5      4.058      6.445
REMARK  4 active torsions:
REMARK  status: ('A' for Active; 'I' for Inactive)
REMARK    1  A    between atoms: C_3  and  C_9 
REMARK    2  A    between atoms: C_11  and  N_17 
REMARK    3  A    between atoms: C_14  and  O_15 
REMARK       I    between atoms: N_17  and  C_18 
REMARK       I    between atoms: C_18  and  N_20 
REMARK    4  A    between atoms: N_20  and  C_21 
ROOT
HETATM    1  C   UNK N   1      34.017  15.770   6.876  0.00  0.00     0.029 A 
HETATM    2  C   UNK N   1      32.655  15.919   6.545  0.00  0.00     0.046 A 
HETATM    3  C   UNK N   1      32.157  15.583   5.295  0.00  0.00     0.037 A 
HETATM    4  C   UNK N   1      33.027  15.112   4.313  0.00  0.00     0.032 A 
HETATM    5  C   UNK N   1      34.371  14.966   4.584  0.00  0.00     0.040 A 
HETATM    6  C   UNK N   1      34.892  15.270   5.851  0.00  0.00     0.081 A 
ENDROOT
BRANCH   3   7
HETATM    7  N   UNK N   1      30.768  15.656   5.015  0.00  0.00    -0.309 N 
HETATM    8  C   UNK N   1      30.192  16.872   4.858  0.00  0.00     0.325 C 
HETATM    9  O   UNK N   1      30.895  17.847   4.611  0.00  0.00    -0.247 OA
HETATM   10  N   UNK N   1      28.857  17.027   5.034  0.00  0.00    -0.306 N 
HETATM   11  H   UNK N   1      28.272  16.238   4.973  0.00  0.00     0.171 HD
HETATM   12  H   UNK N   1      30.231  14.834   4.936  0.00  0.00     0.170 HD
BRANCH  10  13
HETATM   13  C   UNK N   1      28.276  18.302   5.303  0.00  0.00     0.075 A 
HETATM   14  C   UNK N   1      27.725  19.046   4.253  0.00  0.00     0.036 A 
HETATM   15  C   UNK N   1      27.119  20.282   4.509  0.00  0.00     0.044 A 
HETATM   16  C   UNK N   1      27.050  20.775   5.815  0.00  0.00     0.119 A 
HETATM   17  C   UNK N   1      27.569  20.033   6.870  0.00  0.00     0.086 A 
HETATM   18  F   UNK N   1      26.458  21.967   6.066  0.00  0.00    -0.206 F 
HETATM   19  C   UNK N   1      28.173  18.803   6.629  0.00  0.00     0.146 A 
HETATM   20  F   UNK N   1      28.607  18.090   7.700  0.00  0.00    -0.204 F 
ENDBRANCH  10  13
ENDBRANCH   3   7
BRANCH   1  21
HETATM   21  C   UNK N   1      34.398  16.116   8.307  0.00  0.00     0.082 A 
HETATM   22  N   UNK N   1      34.650  17.334   8.867  0.00  0.00    -0.295 N 
HETATM   23  C   UNK N   1      34.608  18.664   8.296  0.00  0.00     0.178 C 
HETATM   24  N   UNK N   1      34.959  17.179  10.143  0.00  0.00    -0.308 N 
HETATM   25  C   UNK N   1      34.919  15.873  10.454  0.00  0.00     0.129 A 
ATOM     26  HN  UNK N   1      35.192  17.933  10.790  1.00  0.00     0.186 HD
HETATM   27  C   UNK N   1      34.567  15.168   9.327  0.00  0.00     0.057 A 
HETATM   28 Br   UNK N   1      34.400  13.255   9.333  0.00  0.00    -0.047 Br
ENDBRANCH   1  21
BRANCH   6  29
HETATM   29  O   UNK N   1      36.205  15.060   6.071  0.00  0.00    -0.355 OA
HETATM   30  C   UNK N   1      36.816  13.827   5.961  0.00  0.00     0.210 C 
ENDBRANCH   6  29
TORSDOF 4
ENDMDL
MODEL 4
REMARK VINA RESULT:      -7.4      4.154      8.700
REMARK  4 active torsions:
REMARK  status: ('A' for Active; 'I' for Inactive)
REMARK    1  A    between atoms: C_3  and  C_9 
REMARK    2  A    between atoms: C_11  and  N_17 
REMARK    3  A    between atoms: C_14  and  O_15 
REMARK       I    between atoms: N_17  and  C_18 
REMARK       I    between atoms: C_18  and  N_20 
REMARK    4  A    between atoms: N_20  and  C_21 
ROOT
HETATM    1  C   UNK N   1      35.246  15.002   8.614  0.00  0.00     0.029 A 
HETATM    2  C   UNK N   1      35.964  14.275   9.585  0.00  0.00     0.046 A 
HETATM    3  C   UNK N   1      36.293  14.815  10.819  0.00  0.00     0.037 A 
HETATM    4  C   UNK N   1      35.939  16.132  11.109  0.00  0.00     0.032 A 
HETATM    5  C   UNK N   1      35.252  16.889  10.184  0.00  0.00     0.040 A 
HETATM    6  C   UNK N   1      34.880  16.352   8.941  0.00  0.00     0.081 A 
ENDROOT
BRANCH   3   7
HETATM    7  N   UNK N   1      36.936  14.034  11.814  0.00  0.00    -0.309 N 
HETATM    8  C   UNK N   1      36.281  13.775  12.972  0.00  0.00     0.325 C 
HETATM    9  O   UNK N   1      35.062  13.900  13.018  0.00  0.00    -0.247 OA
HETATM   10  N   UNK N   1      36.970  13.441  14.090  0.00  0.00    -0.306 N 
HETATM   11  H   UNK N   1      37.888  13.095  14.001  0.00  0.00     0.171 HD
HETATM   12  H   UNK N   1      37.845  13.685  11.665  0.00  0.00     0.170 HD
BRANCH  10  13
HETATM   13  C   UNK N   1      36.404  13.578  15.393  0.00  0.00     0.075 A 
HETATM   14  C   UNK N   1      35.590  12.560  15.902  0.00  0.00     0.036 A 
HETATM   15  C   UNK N   1      35.058  12.665  17.193  0.00  0.00     0.044 A 
HETATM   16  C   UNK N   1      35.346  13.781  17.985  0.00  0.00     0.119 A 
HETATM   17  C   UNK N   1      36.175  14.785  17.500  0.00  0.00     0.086 A 
HETATM   18  F   UNK N   1      34.838  13.882  19.236  0.00  0.00    -0.206 F 
HETATM   19  C   UNK N   1      36.711  14.693  16.219  0.00  0.00     0.146 A 
HETATM   20  F   UNK N   1      37.565  15.670  15.818  0.00  0.00    -0.204 F 
ENDBRANCH  10  13
ENDBRANCH   3   7
BRANCH   1  21
HETATM   21  C   UNK N   1      34.900  14.250   7.338  0.00  0.00     0.082 A 
HETATM   22  N   UNK N   1      33.679  13.903   6.840  0.00  0.00    -0.295 N 
HETATM   23  C   UNK N   1      32.345  14.161   7.341  0.00  0.00     0.178 C 
HETATM   24  N   UNK N   1      33.835  13.243   5.705  0.00  0.00    -0.308 N 
HETATM   25  C   UNK N   1      35.145  13.138   5.429  0.00  0.00     0.129 A 
ATOM     26  HN  UNK N   1      33.079  12.870   5.130  1.00  0.00     0.186 HD
HETATM   27  C   UNK N   1      35.852  13.761   6.431  0.00  0.00     0.057 A 
HETATM   28 Br   UNK N   1      37.771  13.838   6.429  0.00  0.00    -0.047 Br
ENDBRANCH   1  21
BRANCH   6  29
HETATM   29  O   UNK N   1      34.167  17.125   8.098  0.00  0.00    -0.355 OA
HETATM   30  C   UNK N   1      32.927  17.652   8.399  0.00  0.00     0.210 C 
ENDBRANCH   6  29
TORSDOF 4
ENDMDL
MODEL 5
REMARK VINA RESULT:      -7.1     12.718     16.250
REMARK  4 active torsions:
REMARK  status: ('A' for Active; 'I' for Inactive)
REMARK    1  A    between atoms: C_3  and  C_9 
REMARK    2  A    between atoms: C_11  and  N_17 
REMARK    3  A    between atoms: C_14  and  O_15 
REMARK       I    between atoms: N_17  and  C_18 
REMARK       I    between atoms: C_18  and  N_20 
REMARK    4  A    between atoms: N_20  and  C_21 
ROOT
HETATM    1  C   UNK N   1      21.560  16.325   3.735  0.00  0.00     0.029 A 
HETATM    2  C   UNK N   1      21.221  15.126   4.393  0.00  0.00     0.046 A 
HETATM    3  C   UNK N   1      21.828  14.736   5.577  0.00  0.00     0.037 A 
HETATM    4  C   UNK N   1      22.833  15.529   6.128  0.00  0.00     0.032 A 
HETATM    5  C   UNK N   1      23.212  16.702   5.510  0.00  0.00     0.040 A 
HETATM    6  C   UNK N   1      22.589  17.133   4.328  0.00  0.00     0.081 A 
ENDROOT
BRANCH   3   7
HETATM    7  N   UNK N   1      21.406  13.570   6.268  0.00  0.00    -0.309 N 
HETATM    8  C   UNK N   1      21.534  13.523   7.617  0.00  0.00     0.325 C 
HETATM    9  O   UNK N   1      21.668  14.566   8.248  0.00  0.00    -0.247 OA
HETATM   10  N   UNK N   1      21.575  12.332   8.261  0.00  0.00    -0.306 N 
HETATM   11  H   UNK N   1      21.216  11.533   7.812  0.00  0.00     0.171 HD
HETATM   12  H   UNK N   1      21.026  12.807   5.775  0.00  0.00     0.170 HD
BRANCH  10  13
HETATM   13  C   UNK N   1      22.124  12.203   9.572  0.00  0.00     0.075 A 
HETATM   14  C   UNK N   1      23.496  11.980   9.727  0.00  0.00     0.036 A 
HETATM   15  C   UNK N   1      24.054  11.887  11.008  0.00  0.00     0.044 A 
HETATM   16  C   UNK N   1      23.245  12.030  12.139  0.00  0.00     0.119 A 
HETATM   17  C   UNK N   1      21.885  12.279  11.998  0.00  0.00     0.086 A 
HETATM   18  F   UNK N   1      23.782  11.948  13.379  0.00  0.00    -0.206 F 
HETATM   19  C   UNK N   1      21.319  12.373  10.731  0.00  0.00     0.146 A 
HETATM   20  F   UNK N   1      19.999  12.680  10.648  0.00  0.00    -0.204 F 
ENDBRANCH  10  13
ENDBRANCH   3   7
BRANCH   1  21
HETATM   21  C   UNK N   1      20.757  16.649   2.483  0.00  0.00     0.082 A 
HETATM   22  N   UNK N   1      19.948  17.716   2.225  0.00  0.00    -0.295 N 
HETATM   23  C   UNK N   1      19.623  18.874   3.032  0.00  0.00     0.178 C 
HETATM   24  N   UNK N   1      19.433  17.598   1.013  0.00  0.00    -0.308 N 
HETATM   25  C   UNK N   1      19.883  16.465   0.449  0.00  0.00     0.129 A 
ATOM     26  HN  UNK N   1      18.794  18.261   0.575  1.00  0.00     0.186 HD
HETATM   27  C   UNK N   1      20.723  15.839   1.339  0.00  0.00     0.057 A 
HETATM   28 Br   UNK N   1      21.584  14.171   0.929  0.00  0.00    -0.047 Br
ENDBRANCH   1  21
BRANCH   6  29
HETATM   29  O   UNK N   1      22.969  18.313   3.798  0.00  0.00    -0.355 OA
HETATM   30  C   UNK N   1      24.153  18.951   4.107  0.00  0.00     0.210 C 
ENDBRANCH   6  29
TORSDOF 4
ENDMDL
MODEL 6
REMARK VINA RESULT:      -7.1      4.747      9.341
REMARK  4 active torsions:
REMARK  status: ('A' for Active; 'I' for Inactive)
REMARK    1  A    between atoms: C_3  and  C_9 
REMARK    2  A    between atoms: C_11  and  N_17 
REMARK    3  A    between atoms: C_14  and  O_15 
REMARK       I    between atoms: N_17  and  C_18 
REMARK       I    between atoms: C_18  and  N_20 
REMARK    4  A    between atoms: N_20  and  C_21 
ROOT
HETATM    1  C   UNK N   1      28.973  16.621   6.369  0.00  0.00     0.029 A 
HETATM    2  C   UNK N   1      30.366  16.479   6.528  0.00  0.00     0.046 A 
HETATM    3  C   UNK N   1      31.065  15.409   5.993  0.00  0.00     0.037 A 
HETATM    4  C   UNK N   1      30.376  14.414   5.302  0.00  0.00     0.032 A 
HETATM    5  C   UNK N   1      29.010  14.499   5.136  0.00  0.00     0.040 A 
HETATM    6  C   UNK N   1      28.285  15.590   5.642  0.00  0.00     0.081 A 
ENDROOT
BRANCH   3   7
HETATM    7  N   UNK N   1      32.480  15.335   6.088  0.00  0.00    -0.309 N 
HETATM    8  C   UNK N   1      33.042  14.965   7.264  0.00  0.00     0.325 C 
HETATM    9  O   UNK N   1      32.364  14.373   8.098  0.00  0.00    -0.247 OA
HETATM   10  N   UNK N   1      34.325  15.297   7.547  0.00  0.00    -0.306 N 
HETATM   11  H   UNK N   1      34.932  15.530   6.807  0.00  0.00     0.171 HD
HETATM   12  H   UNK N   1      33.044  15.551   5.310  0.00  0.00     0.170 HD
BRANCH  10  13
HETATM   13  C   UNK N   1      34.820  15.320   8.885  0.00  0.00     0.075 A 
HETATM   14  C   UNK N   1      35.482  14.197   9.395  0.00  0.00     0.036 A 
HETATM   15  C   UNK N   1      36.004  14.219  10.693  0.00  0.00     0.044 A 
HETATM   16  C   UNK N   1      35.879  15.365  11.484  0.00  0.00     0.119 A 
HETATM   17  C   UNK N   1      35.248  16.496  10.978  0.00  0.00     0.086 A 
HETATM   18  F   UNK N   1      36.389  15.392  12.737  0.00  0.00    -0.206 F 
HETATM   19  C   UNK N   1      34.724  16.488   9.689  0.00  0.00     0.146 A 
HETATM   20  F   UNK N   1      34.174  17.638   9.222  0.00  0.00    -0.204 F 
ENDBRANCH  10  13
ENDBRANCH   3   7
BRANCH   1  21
HETATM   21  C   UNK N   1      28.359  17.884   6.955  0.00  0.00     0.082 A 
HETATM   22  N   UNK N   1      28.122  18.209   8.257  0.00  0.00    -0.295 N 
HETATM   23  C   UNK N   1      28.401  17.483   9.479  0.00  0.00     0.178 C 
HETATM   24  N   UNK N   1      27.560  19.404   8.320  0.00  0.00    -0.308 N 
HETATM   25  C   UNK N   1      27.414  19.891   7.077  0.00  0.00     0.129 A 
ATOM     26  HN  UNK N   1      27.281  19.882   9.178  1.00  0.00     0.186 HD
HETATM   27  C   UNK N   1      27.907  18.967   6.187  0.00  0.00     0.057 A 
HETATM   28 Br   UNK N   1      27.885  19.266   4.289  0.00  0.00    -0.047 Br
ENDBRANCH   1  21
BRANCH   6  29
HETATM   29  O   UNK N   1      26.959  15.642   5.405  0.00  0.00    -0.355 OA
HETATM   30  C   UNK N   1      26.394  15.500   4.154  0.00  0.00     0.210 C 
ENDBRANCH   6  29
TORSDOF 4
ENDMDL
MODEL 7
REMARK VINA RESULT:      -7.0      5.900     10.388
REMARK  4 active torsions:
REMARK  status: ('A' for Active; 'I' for Inactive)
REMARK    1  A    between atoms: C_3  and  C_9 
REMARK    2  A    between atoms: C_11  and  N_17 
REMARK    3  A    between atoms: C_14  and  O_15 
REMARK       I    between atoms: N_17  and  C_18 
REMARK       I    between atoms: C_18  and  N_20 
REMARK    4  A    between atoms: N_20  and  C_21 
ROOT
HETATM    1  C   UNK N   1      28.298  18.065   4.774  0.00  0.00     0.029 A 
HETATM    2  C   UNK N   1      29.698  18.004   4.918  0.00  0.00     0.046 A 
HETATM    3  C   UNK N   1      30.479  17.126   4.182  0.00  0.00     0.037 A 
HETATM    4  C   UNK N   1      29.869  16.245   3.291  0.00  0.00     0.032 A 
HETATM    5  C   UNK N   1      28.500  16.255   3.129  0.00  0.00     0.040 A 
HETATM    6  C   UNK N   1      27.692  17.157   3.840  0.00  0.00     0.081 A 
ENDROOT
BRANCH   3   7
HETATM    7  N   UNK N   1      31.895  17.146   4.279  0.00  0.00    -0.309 N 
HETATM    8  C   UNK N   1      32.494  16.495   5.305  0.00  0.00     0.325 C 
HETATM    9  O   UNK N   1      31.874  15.631   5.917  0.00  0.00    -0.247 OA
HETATM   10  N   UNK N   1      33.746  16.835   5.697  0.00  0.00    -0.306 N 
HETATM   11  H   UNK N   1      34.326  17.324   5.070  0.00  0.00     0.171 HD
HETATM   12  H   UNK N   1      32.434  17.625   3.608  0.00  0.00     0.170 HD
BRANCH  10  13
HETATM   13  C   UNK N   1      34.245  16.506   6.993  0.00  0.00     0.075 A 
HETATM   14  C   UNK N   1      34.960  15.317   7.175  0.00  0.00     0.036 A 
HETATM   15  C   UNK N   1      35.487  14.999   8.433  0.00  0.00     0.044 A 
HETATM   16  C   UNK N   1      35.313  15.873   9.510  0.00  0.00     0.119 A 
HETATM   17  C   UNK N   1      34.628  17.070   9.334  0.00  0.00     0.086 A 
HETATM   18  F   UNK N   1      35.828  15.572  10.725  0.00  0.00    -0.206 F 
HETATM   19  C   UNK N   1      34.100  17.398   8.090  0.00  0.00     0.146 A 
HETATM   20  F   UNK N   1      33.496  18.606   7.957  0.00  0.00    -0.204 F 
ENDBRANCH  10  13
ENDBRANCH   3   7
BRANCH   1  21
HETATM   21  C   UNK N   1      27.588  19.128   5.600  0.00  0.00     0.082 A 
HETATM   22  N   UNK N   1      27.583  19.316   6.950  0.00  0.00    -0.295 N 
HETATM   23  C   UNK N   1      28.262  18.597   8.008  0.00  0.00     0.178 C 
HETATM   24  N   UNK N   1      26.821  20.354   7.250  0.00  0.00    -0.308 N 
HETATM   25  C   UNK N   1      26.311  20.871   6.120  0.00  0.00     0.129 A 
ATOM     26  HN  UNK N   1      26.647  20.707   8.191  1.00  0.00     0.186 HD
HETATM   27  C   UNK N   1      26.771  20.130   5.057  0.00  0.00     0.057 A 
HETATM   28 Br   UNK N   1      26.273  20.529   3.245  0.00  0.00    -0.047 Br
ENDBRANCH   1  21
BRANCH   6  29
HETATM   29  O   UNK N   1      26.365  17.153   3.602  0.00  0.00    -0.355 OA
HETATM   30  C   UNK N   1      25.460  16.378   4.300  0.00  0.00     0.210 C 
ENDBRANCH   6  29
TORSDOF 4
ENDMDL
MODEL 8
REMARK VINA RESULT:      -7.0      4.397      6.636
REMARK  4 active torsions:
REMARK  status: ('A' for Active; 'I' for Inactive)
REMARK    1  A    between atoms: C_3  and  C_9 
REMARK    2  A    between atoms: C_11  and  N_17 
REMARK    3  A    between atoms: C_14  and  O_15 
REMARK       I    between atoms: N_17  and  C_18 
REMARK       I    between atoms: C_18  and  N_20 
REMARK    4  A    between atoms: N_20  and  C_21 
ROOT
HETATM    1  C   UNK N   1      33.953  15.433   6.681  0.00  0.00     0.029 A 
HETATM    2  C   UNK N   1      32.588  15.627   6.391  0.00  0.00     0.046 A 
HETATM    3  C   UNK N   1      32.084  15.526   5.104  0.00  0.00     0.037 A 
HETATM    4  C   UNK N   1      32.951  15.259   4.045  0.00  0.00     0.032 A 
HETATM    5  C   UNK N   1      34.299  15.079   4.277  0.00  0.00     0.040 A 
HETATM    6  C   UNK N   1      34.826  15.145   5.576  0.00  0.00     0.081 A 
ENDROOT
BRANCH   3   7
HETATM    7  N   UNK N   1      30.692  15.636   4.850  0.00  0.00    -0.309 N 
HETATM    8  C   UNK N   1      30.137  16.868   4.747  0.00  0.00     0.325 C 
HETATM    9  O   UNK N   1      30.855  17.837   4.523  0.00  0.00    -0.247 OA
HETATM   10  N   UNK N   1      28.809  17.041   4.950  0.00  0.00    -0.306 N 
HETATM   11  H   UNK N   1      28.208  16.265   4.871  0.00  0.00     0.171 HD
HETATM   12  H   UNK N   1      30.138  14.828   4.749  0.00  0.00     0.170 HD
BRANCH  10  13
HETATM   13  C   UNK N   1      28.256  18.316   5.275  0.00  0.00     0.075 A 
HETATM   14  C   UNK N   1      27.686  19.099   4.266  0.00  0.00     0.036 A 
HETATM   15  C   UNK N   1      27.108  20.336   4.577  0.00  0.00     0.044 A 
HETATM   16  C   UNK N   1      27.087  20.791   5.899  0.00  0.00     0.119 A 
HETATM   17  C   UNK N   1      27.626  20.009   6.914  0.00  0.00     0.086 A 
HETATM   18  F   UNK N   1      26.523  21.983   6.203  0.00  0.00    -0.206 F 
HETATM   19  C   UNK N   1      28.203  18.778   6.618  0.00  0.00     0.146 A 
HETATM   20  F   UNK N   1      28.658  18.027   7.654  0.00  0.00    -0.204 F 
ENDBRANCH  10  13
ENDBRANCH   3   7
BRANCH   1  21
HETATM   21  C   UNK N   1      34.341  15.507   8.150  0.00  0.00     0.082 A 
HETATM   22  N   UNK N   1      34.505  14.501   9.056  0.00  0.00    -0.295 N 
HETATM   23  C   UNK N   1      34.393  13.065   8.905  0.00  0.00     0.178 C 
HETATM   24  N   UNK N   1      34.835  15.012  10.230  0.00  0.00    -0.308 N 
HETATM   25  C   UNK N   1      34.895  16.350  10.131  0.00  0.00     0.129 A 
ATOM     26  HN  UNK N   1      35.014  14.474  11.078  1.00  0.00     0.186 HD
HETATM   27  C   UNK N   1      34.595  16.704   8.837  0.00  0.00     0.057 A 
HETATM   28 Br   UNK N   1      34.562  18.537   8.263  0.00  0.00    -0.047 Br
ENDBRANCH   1  21
BRANCH   6  29
HETATM   29  O   UNK N   1      36.143  14.912   5.745  0.00  0.00    -0.355 OA
HETATM   30  C   UNK N   1      36.689  13.653   5.893  0.00  0.00     0.210 C 
ENDBRANCH   6  29
TORSDOF 4
ENDMDL
MODEL 9
REMARK VINA RESULT:      -7.0      4.094      8.917
REMARK  4 active torsions:
REMARK  status: ('A' for Active; 'I' for Inactive)
REMARK    1  A    between atoms: C_3  and  C_9 
REMARK    2  A    between atoms: C_11  and  N_17 
REMARK    3  A    between atoms: C_14  and  O_15 
REMARK       I    between atoms: N_17  and  C_18 
REMARK       I    between atoms: C_18  and  N_20 
REMARK    4  A    between atoms: N_20  and  C_21 
ROOT
HETATM    1  C   UNK N   1      31.242  16.737   6.466  0.00  0.00     0.029 A 
HETATM    2  C   UNK N   1      31.751  16.626   7.775  0.00  0.00     0.046 A 
HETATM    3  C   UNK N   1      33.036  17.028   8.105  0.00  0.00     0.037 A 
HETATM    4  C   UNK N   1      33.875  17.529   7.112  0.00  0.00     0.032 A 
HETATM    5  C   UNK N   1      33.428  17.640   5.812  0.00  0.00     0.040 A 
HETATM    6  C   UNK N   1      32.121  17.269   5.461  0.00  0.00     0.081 A 
ENDROOT
BRANCH   3   7
HETATM    7  N   UNK N   1      33.494  16.991   9.448  0.00  0.00    -0.309 N 
HETATM    8  C   UNK N   1      34.373  16.028   9.816  0.00  0.00     0.325 C 
HETATM    9  O   UNK N   1      35.020  15.439   8.957  0.00  0.00    -0.247 OA
HETATM   10  N   UNK N   1      34.495  15.671  11.118  0.00  0.00    -0.306 N 
HETATM   11  H   UNK N   1      34.187  16.294  11.815  0.00  0.00     0.171 HD
HETATM   12  H   UNK N   1      33.178  17.656  10.102  0.00  0.00     0.170 HD
BRANCH  10  13
HETATM   13  C   UNK N   1      35.056  14.418  11.507  0.00  0.00     0.075 A 
HETATM   14  C   UNK N   1      34.742  13.265  10.778  0.00  0.00     0.036 A 
HETATM   15  C   UNK N   1      35.314  12.035  11.126  0.00  0.00     0.044 A 
HETATM   16  C   UNK N   1      36.211  11.953  12.195  0.00  0.00     0.119 A 
HETATM   17  C   UNK N   1      36.551  13.097  12.909  0.00  0.00     0.086 A 
HETATM   18  F   UNK N   1      36.771  10.767  12.529  0.00  0.00    -0.206 F 
HETATM   19  C   UNK N   1      35.991  14.324  12.574  0.00  0.00     0.146 A 
HETATM   20  F   UNK N   1      36.405  15.419  13.262  0.00  0.00    -0.204 F 
ENDBRANCH  10  13
ENDBRANCH   3   7
BRANCH   1  21
HETATM   21  C   UNK N   1      29.791  16.318   6.276  0.00  0.00     0.082 A 
HETATM   22  N   UNK N   1      29.278  15.264   5.579  0.00  0.00    -0.295 N 
HETATM   23  C   UNK N   1      29.937  14.210   4.837  0.00  0.00     0.178 C 
HETATM   24  N   UNK N   1      27.959  15.278   5.664  0.00  0.00    -0.308 N 
HETATM   25  C   UNK N   1      27.573  16.327   6.409  0.00  0.00     0.129 A 
ATOM     26  HN  UNK N   1      27.332  14.599   5.232  1.00  0.00     0.186 HD
HETATM   27  C   UNK N   1      28.696  17.007   6.817  0.00  0.00     0.057 A 
HETATM   28 Br   UNK N   1      28.593  18.587   7.904  0.00  0.00    -0.047 Br
ENDBRANCH   1  21
BRANCH   6  29
HETATM   29  O   UNK N   1      31.725  17.447   4.185  0.00  0.00    -0.355 OA
HETATM   30  C   UNK N   1      32.312  16.822   3.103  0.00  0.00     0.210 C 
ENDBRANCH   6  29
TORSDOF 4
ENDMDL
