REMARK  17 active torsions:
REMARK  status: ('A' for Active; 'I' for Inactive)
REMARK    1  A    between atoms: C_3  and  C_2 
REMARK    2  A    between atoms: C_2  and  O_82 
REMARK    3  A    between atoms: C_7  and  C_75 
REMARK    4  A    between atoms: N_10  and  C_71 
REMARK    5  A    between atoms: C_23  and  C_64 
REMARK    6  A    between atoms: C_27  and  C_54 
REMARK    7  A    between atoms: C_31  and  C_44 
REMARK    8  A    between atoms: C_35  and  C_39 
REMARK    9  A    between atoms: C_39  and  C_40 
REMARK   10  A    between atoms: C_40  and  C_41 
REMARK   11  A    between atoms: C_41  and  C_42 
REMARK   12  A    between atoms: C_42  and  N_43 
REMARK   13  A    between atoms: C_44  and  C_45 
REMARK   14  A    between atoms: C_54  and  C_55 
REMARK   15  A    between atoms: C_64  and  C_65 
REMARK   16  A    between atoms: C_71  and  C_72 
REMARK       I    between atoms: C_72  and  N_74 
REMARK   17  A    between atoms: C_75  and  C_76 
ROOT
HETATM    1  C   UNK N   1       8.466 -12.123  -1.290  0.00  0.00     0.205 C 
HETATM    2  C   UNK N   1       7.193 -12.194  -0.560  0.00  0.00     0.243 C 
HETATM    3  O   UNK N   1       6.971 -13.165   0.135  0.00  0.00    -0.271 OA
HETATM    4  N   UNK N   1       6.353 -11.134  -0.544  0.00  0.00    -0.346 N 
HETATM    5  C   UNK N   1       5.301 -11.219   0.337  0.00  0.00     0.172 C 
HETATM    6  C   UNK N   1       4.905 -10.113   1.220  0.00  0.00     0.223 C 
HETATM    7  O   UNK N   1       5.092 -10.250   2.419  0.00  0.00    -0.277 OA
HETATM    8  N   UNK N   1       3.890  -9.360   0.757  0.00  0.00    -0.243 NA
HETATM    9  C   UNK N   1       3.990  -9.059  -0.624  0.00  0.00     0.099 C 
HETATM   10  C   UNK N   1       4.509  -7.768  -0.661  0.00  0.00     0.024 C 
HETATM   11  C   UNK N   1       3.688  -7.067  -1.499  0.00  0.00     0.104 C 
HETATM   12  C   UNK N   1       3.070  -6.397  -0.418  0.00  0.00     0.217 C 
HETATM   13  O   UNK N   1       1.873  -6.522  -0.260  0.00  0.00    -0.274 OA
HETATM   14  N   UNK N   1       3.727  -5.340   0.071  0.00  0.00    -0.361 N 
HETATM   15  C   UNK N   1       2.974  -4.175   0.184  0.00  0.00     0.123 C 
HETATM   16  C   UNK N   1       2.367  -4.071  -1.207  0.00  0.00     0.029 C 
HETATM   17  C   UNK N   1       1.669  -2.852  -1.180  0.00  0.00     0.104 C 
HETATM   18  C   UNK N   1       2.660  -1.835  -1.562  0.00  0.00     0.218 C 
HETATM   19  O   UNK N   1       2.195  -0.905  -2.174  0.00  0.00    -0.274 OA
HETATM   20  N   UNK N   1       4.016  -2.072  -1.654  0.00  0.00    -0.347 N 
HETATM   21  C   UNK N   1       5.034  -2.004  -0.586  0.00  0.00     0.180 C 
HETATM   22  C   UNK N   1       6.042  -3.036  -0.629  0.00  0.00     0.241 C 
HETATM   23  O   UNK N   1       7.058  -2.757  -1.234  0.00  0.00    -0.271 OA
HETATM   24  N   UNK N   1       6.029  -4.051   0.303  0.00  0.00    -0.346 N 
HETATM   25  C   UNK N   1       6.440  -3.908   1.715  0.00  0.00     0.181 C 
HETATM   26  C   UNK N   1       6.539  -5.168   2.560  0.00  0.00     0.241 C 
HETATM   27  O   UNK N   1       6.926  -5.073   3.720  0.00  0.00    -0.271 OA
HETATM   28  N   UNK N   1       6.619  -6.371   1.993  0.00  0.00    -0.346 N 
HETATM   29  C   UNK N   1       7.026  -6.486   0.629  0.00  0.00     0.177 C 
HETATM   30  C   UNK N   1       6.876  -7.758   0.174  0.00  0.00     0.241 C 
HETATM   31  O   UNK N   1       6.974  -8.666   0.998  0.00  0.00    -0.271 OA
HETATM   32  N   UNK N   1       7.034  -7.872  -1.192  0.00  0.00    -0.346 N 
HETATM   33  C   UNK N   1       7.951  -8.718  -1.930  0.00  0.00     0.176 C 
HETATM   34  C   UNK N   1       8.399  -9.777  -1.228  0.00  0.00     0.241 C 
HETATM   35  O   UNK N   1       8.699  -9.712  -0.061  0.00  0.00    -0.271 OA
HETATM   36  N   UNK N   1       8.466 -10.889  -1.937  0.00  0.00    -0.344 N 
HETATM   37  H   UNK N   1       6.487 -10.352  -1.127  0.00  0.00     0.163 HD
HETATM   38  H   UNK N   1       4.675  -5.382   0.333  0.00  0.00     0.162 HD
HETATM   39  H   UNK N   1       4.348  -2.319  -2.547  0.00  0.00     0.163 HD
HETATM   40  H   UNK N   1       5.724  -4.939   0.005  0.00  0.00     0.163 HD
HETATM   41  H   UNK N   1       6.398  -7.178   2.513  0.00  0.00     0.163 HD
HETATM   42  H   UNK N   1       6.446  -7.302  -1.739  0.00  0.00     0.163 HD
HETATM   43  H   UNK N   1       8.517 -10.846  -2.919  0.00  0.00     0.163 HD
ENDROOT
BRANCH  25  44
HETATM   44  C   UNK N   1       7.869  -3.652   1.736  0.00  0.00     0.075 C 
BRANCH  44  45
HETATM   45  C   UNK N   1       8.147  -2.247   1.708  0.00  0.00    -0.028 A 
HETATM   46  C   UNK N   1       7.699  -1.253   2.504  0.00  0.00     0.096 A 
HETATM   47  N   UNK N   1       8.372  -0.100   2.122  0.00  0.00    -0.365 N 
HETATM   48  C   UNK N   1       9.163  -0.468   1.163  0.00  0.00     0.042 A 
HETATM   49  H   UNK N   1       8.271   0.804   2.499  0.00  0.00     0.165 HD
HETATM   50  C   UNK N   1       9.060  -1.733   0.838  0.00  0.00    -0.002 A 
HETATM   51  C   UNK N   1      10.140   0.285   0.393  0.00  0.00     0.030 A 
HETATM   52  C   UNK N   1       9.713  -2.275  -0.129  0.00  0.00     0.014 A 
HETATM   53  C   UNK N   1      10.671  -1.696  -0.892  0.00  0.00     0.001 A 
HETATM   54  C   UNK N   1      10.895  -0.370  -0.616  0.00  0.00     0.002 A 
ENDBRANCH  44  45
ENDBRANCH  25  44
BRANCH  21  55
HETATM   55  C   UNK N   1       4.726  -1.735   0.897  0.00  0.00     0.073 C 
BRANCH  55  56
HETATM   56  C   UNK N   1       4.430  -0.344   0.990  0.00  0.00    -0.056 C 
HETATM   57  C   UNK N   1       3.099  -0.110   0.742  0.00  0.00     0.007 C 
HETATM   58  C   UNK N   1       2.744   0.914  -0.108  0.00  0.00     0.001 C 
HETATM   59  C   UNK N   1       3.735   1.698  -0.702  0.00  0.00     0.000 C 
HETATM   60  C   UNK N   1       5.073   1.556  -0.320  0.00  0.00     0.001 C 
HETATM   61  C   UNK N   1       5.431   0.523   0.533  0.00  0.00     0.007 C 
ENDBRANCH  55  56
ENDBRANCH  21  55
BRANCH  29  62
HETATM   62  C   UNK N   1       8.563  -6.651   0.443  0.00  0.00     0.049 C 
BRANCH  62  63
HETATM   63  C   UNK N   1       9.106  -6.370  -1.100  0.00  0.00     0.061 C 
HETATM   64  C   UNK N   1       8.331  -5.380  -1.486  0.00  0.00     0.070 C 
HETATM   65  N   UNK N   1       8.764  -4.403  -0.704  0.00  0.00    -0.368 N 
HETATM   66  C   UNK N   1       9.986  -4.781  -0.345  0.00  0.00     0.038 C 
HETATM   67  H   UNK N   1       8.286  -3.582  -0.447  0.00  0.00     0.165 HD
HETATM   68  C   UNK N   1      10.364  -5.793  -0.967  0.00  0.00    -0.022 C 
HETATM   69  C   UNK N   1      10.835  -4.400   0.739  0.00  0.00     0.030 C 
HETATM   70  C   UNK N   1      11.627  -5.672  -1.557  0.00  0.00     0.010 C 
HETATM   71  C   UNK N   1      12.597  -4.986  -0.759  0.00  0.00     0.001 C 
HETATM   72  C   UNK N   1      12.187  -4.574   0.536  0.00  0.00     0.002 C 
ENDBRANCH  62  63
ENDBRANCH  29  62
BRANCH  33  73
HETATM   73  C   UNK N   1       9.140  -8.253  -2.836  0.00  0.00     0.035 C 
BRANCH  73  74
HETATM   74  C   UNK N   1      10.550  -8.901  -2.483  0.00  0.00     0.004 C 
BRANCH  74  75
HETATM   75  C   UNK N   1      11.470  -8.390  -1.332  0.00  0.00     0.019 C 
BRANCH  75  76
HETATM   76  C   UNK N   1      10.973  -8.418   0.122  0.00  0.00     0.111 C 
BRANCH  76  77
HETATM   77  N   UNK N   1      11.875  -7.695   1.010  0.00  0.00    -0.430 N 
HETATM   78  H   UNK N   1      12.628  -7.989   1.631  0.00  0.00     0.149 HD
HETATM   79  H   UNK N   1      11.720  -6.687   1.010  0.00  0.00     0.149 HD
ENDBRANCH  76  77
ENDBRANCH  75  76
ENDBRANCH  74  75
ENDBRANCH  73  74
ENDBRANCH  33  73
BRANCH   1  80
HETATM   80  C   UNK N   1       9.656 -12.332  -0.333  0.00  0.00     0.146 C 
HETATM   81  C   UNK N   1       9.675 -11.660   1.040  0.00  0.00     0.042 C 
BRANCH  80  82
HETATM   82  O   UNK N   1       9.599 -13.661  -0.009  0.00  0.00    -0.393 OA
HETATM   83  H   UNK N   1       8.763 -14.096   0.220  0.00  0.00     0.210 HD
ENDBRANCH  80  82
ENDBRANCH   1  80
BRANCH   5  84
HETATM   84  C   UNK N   1       4.165 -11.696  -0.433  0.00  0.00     0.046 C 
BRANCH  84  85
HETATM   85  C   UNK N   1       3.436 -12.504   0.484  0.00  0.00     0.033 C 
HETATM   86  C   UNK N   1       4.248 -13.562   0.902  0.00  0.00    -0.018 C 
HETATM   87  C   UNK N   1       4.039 -14.798   0.362  0.00  0.00    -0.003 C 
HETATM   88  C   UNK N   1       2.919 -14.990  -0.444  0.00  0.00    -0.001 C 
HETATM   89  C   UNK N   1       1.956 -13.981  -0.581  0.00  0.00    -0.003 C 
HETATM   90  C   UNK N   1       2.214 -12.726  -0.088  0.00  0.00    -0.018 C 
ENDBRANCH  84  85
ENDBRANCH   5  84
BRANCH   8  91
HETATM   91  C   UNK N   1       2.582  -9.828   1.163  0.00  0.00     0.201 C 
BRANCH  91  92
HETATM   92  C   UNK N   1       1.411  -9.091   0.624  0.00  0.00     0.228 C 
HETATM   93  O   UNK N   1       0.840  -9.446  -0.403  0.00  0.00    -0.272 OA
HETATM   94  N   UNK N   1       0.836  -8.195   1.433  0.00  0.00    -0.369 N 
HETATM   95  H   UNK N   1       1.195  -7.499   2.029  0.00  0.00     0.159 HD
HETATM   96  H   UNK N   1      -0.147  -8.242   1.433  0.00  0.00     0.159 HD
ENDBRANCH  91  92
ENDBRANCH   8  91
TORSDOF 17
