REMARK  16 active torsions:
REMARK  status: ('A' for Active; 'I' for Inactive)
REMARK    1  A    between atoms: C_3  and  C_2 
REMARK    2  A    between atoms: C_6  and  C_3 
REMARK    3  A    between atoms: C_5  and  C_4 
REMARK    4  A    between atoms: C_8  and  C_5 
REMARK    5  A    between atoms: C_9  and  C_6 
REMARK    6  A    between atoms: C_10  and  C_7 
REMARK    7  A    between atoms: C_11  and  C_8 
REMARK    8  A    between atoms: C_15  and  C_9 
REMARK    9  A    between atoms: C_16  and  C_10 
REMARK   10  A    between atoms: C_20  and  C_11 
REMARK   11  A    between atoms: C_15  and  C_12 
REMARK   12  A    between atoms: C_17  and  C_13 
REMARK   13  A    between atoms: C_15  and  O_21 
REMARK   14  A    between atoms: C_18  and  O_22 
REMARK   15  A    between atoms: C_19  and  O_23 
REMARK   16  A    between atoms: O_25  and  C_20 
ROOT
HETATM    1  C   UNK N   1       6.829   3.047  -0.444  0.00  0.00     0.064 C 
HETATM    2  C   UNK N   1       6.855   5.379   0.248  0.00  0.00     0.028 C 
HETATM    3  C   UNK N   1       5.511   4.692   0.600  0.00  0.00     0.043 C 
HETATM    4  C   UNK N   1       7.596   4.343  -0.620  0.00  0.00     0.125 C 
HETATM    5  C   UNK N   1       5.399   3.555  -0.413  0.00  0.00     0.128 C 
ENDROOT
BRANCH   2   6
HETATM    6  C   UNK N   1       6.776   6.705  -0.528  0.00  0.00     0.034 C 
BRANCH   6   7
HETATM    7  C   UNK N   1       6.629   7.885   0.387  0.00  0.00    -0.030 C 
HETATM    8  C   UNK N   1       5.809   8.899   0.091  0.00  0.00    -0.031 C 
BRANCH   8   9
HETATM    9  C   UNK N   1       5.718  10.094   0.996  0.00  0.00     0.027 C 
BRANCH   9  10
HETATM   10  C   UNK N   1       7.072  10.787   1.175  0.00  0.00     0.014 C 
BRANCH  10  11
HETATM   11  C   UNK N   1       7.650  11.300  -0.141  0.00  0.00     0.110 C 
BRANCH  11  12
HETATM   12  C   UNK N   1       6.914  12.502  -0.638  0.00  0.00     0.139 C 
HETATM   13  O   UNK N   1       5.737  12.421  -0.945  0.00  0.00    -0.650 OA
BRANCH  12  14
HETATM   14  O   UNK N   1       7.563  13.674  -0.772  0.00  0.00    -0.776 OA
HETATM   15  H   UNK N   1       8.495  13.691  -0.865  0.00  0.00     0.167 HD
ENDBRANCH  12  14
ENDBRANCH  11  12
ENDBRANCH  10  11
ENDBRANCH   9  10
ENDBRANCH   8   9
ENDBRANCH   6   7
ENDBRANCH   2   6
BRANCH   3  16
HETATM   16  C   UNK N   1       4.335   5.632   0.779  0.00  0.00    -0.021 C 
HETATM   17  C   UNK N   1       3.205   5.571   0.047  0.00  0.00     0.001 C 
BRANCH  17  18
HETATM   18  C   UNK N   1       2.094   6.570   0.254  0.00  0.00     0.140 C 
BRANCH  18  19
HETATM   19  C   UNK N   1       0.788   5.890   0.664  0.00  0.00     0.036 C 
BRANCH  19  20
HETATM   20  C   UNK N   1       0.121   5.126  -0.476  0.00  0.00     0.003 C 
BRANCH  20  21
HETATM   21  C   UNK N   1      -1.091   4.358   0.037  0.00  0.00    -0.000 C 
BRANCH  21  22
HETATM   22  C   UNK N   1      -2.200   5.288   0.514  0.00  0.00    -0.005 C 
HETATM   23  C   UNK N   1      -3.083   5.705  -0.645  0.00  0.00     0.005 C 
ENDBRANCH  21  22
ENDBRANCH  20  21
ENDBRANCH  19  20
ENDBRANCH  18  19
BRANCH  18  24
HETATM   24  O   UNK N   1       1.908   7.307  -0.916  0.00  0.00    -0.392 OA
HETATM   25  H   UNK N   1       2.287   7.676  -1.730  0.00  0.00     0.210 HD
ENDBRANCH  18  24
ENDBRANCH  17  18
ENDBRANCH   3  16
BRANCH   4  26
HETATM   26  O   UNK N   1       8.939   4.219  -0.258  0.00  0.00    -0.395 OA
HETATM   27  H   UNK N   1       9.330   3.368  -0.007  0.00  0.00     0.210 HD
ENDBRANCH   4  26
BRANCH   5  28
HETATM   28  O   UNK N   1       4.518   2.560   0.016  0.00  0.00    -0.395 OA
HETATM   29  H   UNK N   1       3.613   2.745   0.313  0.00  0.00     0.210 HD
ENDBRANCH   5  28
TORSDOF 16
