MODEL 1
REMARK VINA RESULT:      -8.3      0.000      0.000
REMARK  5 active torsions:
REMARK  status: ('A' for Active; 'I' for Inactive)
REMARK    1  A    between atoms: C_6  and  C_7 
REMARK    2  A    between atoms: C_7  and  N_8 
REMARK    3  A    between atoms: C_11  and  N_14 
REMARK    4  A    between atoms: N_14  and  C_15 
REMARK    5  A    between atoms: C_18  and  C_23 
ROOT
HETATM    1  N   UNK N   1      35.606  11.384  14.009  0.00  0.00     0.092 N 
HETATM    2  C   UNK N   1      36.786  12.283  13.972  0.00  0.00     0.275 C 
HETATM    3  C   UNK N   1      36.495  13.573  13.186  0.00  0.00     0.055 C 
HETATM    4  C   UNK N   1      35.906  13.267  11.808  0.00  0.00     0.086 C 
HETATM    5  C   UNK N   1      35.901  11.743  11.553  0.00  0.00     0.055 C 
HETATM    6  C   UNK N   1      35.097  11.054  12.669  0.00  0.00     0.275 C 
ENDROOT
BRANCH   4   7
HETATM    7  N   UNK N   1      34.543  13.758  11.727  0.00  0.00    -0.371 N 
HETATM    8  H   UNK N   1      33.794  13.234  12.093  0.00  0.00     0.161 HD
BRANCH   7   9
HETATM    9  C   UNK N   1      34.319  15.006  11.108  0.00  0.00     0.116 A 
HETATM   10  C   UNK N   1      35.385  15.897  10.949  0.00  0.00     0.052 A 
HETATM   11  C   UNK N   1      35.280  16.928  10.034  0.00  0.00     0.039 A 
HETATM   12  C   UNK N   1      34.124  17.035   9.267  0.00  0.00     0.132 A 
HETATM   13  N   UNK N   1      33.089  16.174   9.488  0.00  0.00    -0.295 N 
HETATM   14  N   UNK N   1      33.186  15.189  10.378  0.00  0.00    -0.285 N 
ATOM     15  HN  UNK N   1      32.223  16.289   8.962  1.00  0.00     0.187 HD
ATOM     16  HN  UNK N   1      32.395  14.560  10.515  1.00  0.00     0.188 HD
BRANCH  12  17
HETATM   17  C   UNK N   1      34.068  18.031   8.159  0.00  0.00     0.433 C 
HETATM   18  F   UNK N   1      35.004  19.030   8.354  0.00  0.00    -0.165 F 
HETATM   19  F   UNK N   1      34.306  17.405   6.950  0.00  0.00    -0.165 F 
HETATM   20  F   UNK N   1      32.807  18.603   8.138  0.00  0.00    -0.165 F 
ENDBRANCH  12  17
ENDBRANCH   7   9
ENDBRANCH   4   7
BRANCH   1  21
HETATM   21  C   UNK N   1      34.526  11.930  14.852  0.00  0.00     0.311 C 
BRANCH  21  22
HETATM   22  C   UNK N   1      35.064  12.080  16.234  0.00  0.00    -0.027 A 
HETATM   23  C   UNK N   1      35.219  10.925  17.007  0.00  0.00     0.054 A 
HETATM   24  C   UNK N   1      35.323  11.024  18.392  0.00  0.00     0.155 A 
HETATM   25  C   UNK N   1      35.261  12.279  19.009  0.00  0.00     0.154 A 
HETATM   26  F   UNK N   1      35.417   9.896  19.138  0.00  0.00    -0.203 F 
HETATM   27  C   UNK N   1      35.139  13.436  18.234  0.00  0.00     0.046 A 
HETATM   28  F   UNK N   1      35.296  12.375  20.358  0.00  0.00    -0.203 F 
HETATM   29  C   UNK N   1      35.018  13.335  16.848  0.00  0.00     0.012 A 
ENDBRANCH  21  22
ENDBRANCH   1  21
TORSDOF 5
ENDMDL
MODEL 2
REMARK VINA RESULT:      -8.2      1.458      2.134
REMARK  5 active torsions:
REMARK  status: ('A' for Active; 'I' for Inactive)
REMARK    1  A    between atoms: C_6  and  C_7 
REMARK    2  A    between atoms: C_7  and  N_8 
REMARK    3  A    between atoms: C_11  and  N_14 
REMARK    4  A    between atoms: N_14  and  C_15 
REMARK    5  A    between atoms: C_18  and  C_23 
ROOT
HETATM    1  N   UNK N   1      36.161  11.599  14.003  0.00  0.00     0.092 N 
HETATM    2  C   UNK N   1      37.116  11.032  13.019  0.00  0.00     0.275 C 
HETATM    3  C   UNK N   1      37.609  12.097  12.025  0.00  0.00     0.055 C 
HETATM    4  C   UNK N   1      36.441  12.854  11.391  0.00  0.00     0.086 C 
HETATM    5  C   UNK N   1      35.096  12.233  11.832  0.00  0.00     0.055 C 
HETATM    6  C   UNK N   1      35.014  12.266  13.367  0.00  0.00     0.275 C 
ENDROOT
BRANCH   4   7
HETATM    7  N   UNK N   1      36.468  14.247  11.797  0.00  0.00    -0.371 N 
HETATM    8  H   UNK N   1      36.730  14.502  12.711  0.00  0.00     0.161 HD
BRANCH   7   9
HETATM    9  C   UNK N   1      36.108  15.226  10.847  0.00  0.00     0.116 A 
HETATM   10  C   UNK N   1      35.897  14.850   9.516  0.00  0.00     0.052 A 
HETATM   11  C   UNK N   1      35.193  15.691   8.675  0.00  0.00     0.039 A 
HETATM   12  C   UNK N   1      34.682  16.881   9.182  0.00  0.00     0.132 A 
HETATM   13  N   UNK N   1      34.953  17.232  10.472  0.00  0.00    -0.295 N 
HETATM   14  N   UNK N   1      35.641  16.428  11.279  0.00  0.00    -0.285 N 
ATOM     15  HN  UNK N   1      34.623  18.131  10.826  1.00  0.00     0.187 HD
ATOM     16  HN  UNK N   1      35.822  16.719  12.240  1.00  0.00     0.188 HD
BRANCH  12  17
HETATM   17  C   UNK N   1      33.777  17.711   8.337  0.00  0.00     0.433 C 
HETATM   18  F   UNK N   1      32.516  17.785   8.901  0.00  0.00    -0.165 F 
HETATM   19  F   UNK N   1      34.296  18.984   8.200  0.00  0.00    -0.165 F 
HETATM   20  F   UNK N   1      33.670  17.124   7.088  0.00  0.00    -0.165 F 
ENDBRANCH  12  17
ENDBRANCH   7   9
ENDBRANCH   4   7
BRANCH   1  21
HETATM   21  C   UNK N   1      36.827  12.510  14.953  0.00  0.00     0.311 C 
BRANCH  21  22
HETATM   22  C   UNK N   1      35.970  12.597  16.169  0.00  0.00    -0.027 A 
HETATM   23  C   UNK N   1      35.698  13.866  16.691  0.00  0.00     0.054 A 
HETATM   24  C   UNK N   1      35.265  13.998  18.008  0.00  0.00     0.155 A 
HETATM   25  C   UNK N   1      35.113  12.862  18.810  0.00  0.00     0.154 A 
HETATM   26  F   UNK N   1      35.058  15.234  18.523  0.00  0.00    -0.203 F 
HETATM   27  C   UNK N   1      35.352  11.591  18.279  0.00  0.00     0.046 A 
HETATM   28  F   UNK N   1      34.755  12.990  20.109  0.00  0.00    -0.203 F 
HETATM   29  C   UNK N   1      35.803  11.460  16.966  0.00  0.00     0.012 A 
ENDBRANCH  21  22
ENDBRANCH   1  21
TORSDOF 5
ENDMDL
MODEL 3
REMARK VINA RESULT:      -7.5     11.699     13.534
REMARK  5 active torsions:
REMARK  status: ('A' for Active; 'I' for Inactive)
REMARK    1  A    between atoms: C_6  and  C_7 
REMARK    2  A    between atoms: C_7  and  N_8 
REMARK    3  A    between atoms: C_11  and  N_14 
REMARK    4  A    between atoms: N_14  and  C_15 
REMARK    5  A    between atoms: C_18  and  C_23 
ROOT
HETATM    1  N   UNK N   1      20.749  14.410   7.453  0.00  0.00     0.092 N 
HETATM    2  C   UNK N   1      20.274  14.533   6.053  0.00  0.00     0.275 C 
HETATM    3  C   UNK N   1      21.324  15.204   5.151  0.00  0.00     0.055 C 
HETATM    4  C   UNK N   1      21.822  16.518   5.754  0.00  0.00     0.086 C 
HETATM    5  C   UNK N   1      21.022  16.860   7.032  0.00  0.00     0.055 C 
HETATM    6  C   UNK N   1      21.162  15.698   8.031  0.00  0.00     0.275 C 
ENDROOT
BRANCH   4   7
HETATM    7  N   UNK N   1      23.227  16.410   6.099  0.00  0.00    -0.371 N 
HETATM    8  H   UNK N   1      23.526  15.813   6.823  0.00  0.00     0.161 HD
BRANCH   7   9
HETATM    9  C   UNK N   1      24.154  17.183   5.368  0.00  0.00     0.116 A 
HETATM   10  C   UNK N   1      23.692  18.196   4.521  0.00  0.00     0.052 A 
HETATM   11  C   UNK N   1      24.562  19.186   4.105  0.00  0.00     0.039 A 
HETATM   12  C   UNK N   1      25.874  19.168   4.566  0.00  0.00     0.132 A 
HETATM   13  N   UNK N   1      26.297  18.136   5.351  0.00  0.00    -0.295 N 
HETATM   14  N   UNK N   1      25.462  17.176   5.742  0.00  0.00    -0.285 N 
ATOM     15  HN  UNK N   1      27.274  18.098   5.643  1.00  0.00     0.187 HD
ATOM     16  HN  UNK N   1      25.809  16.421   6.333  1.00  0.00     0.188 HD
BRANCH  12  17
HETATM   17  C   UNK N   1      26.773  20.320   4.267  0.00  0.00     0.433 C 
HETATM   18  F   UNK N   1      28.093  19.911   4.225  0.00  0.00    -0.165 F 
HETATM   19  F   UNK N   1      26.426  20.885   3.055  0.00  0.00    -0.165 F 
HETATM   20  F   UNK N   1      26.634  21.266   5.269  0.00  0.00    -0.165 F 
ENDBRANCH  12  17
ENDBRANCH   7   9
ENDBRANCH   4   7
BRANCH   1  21
HETATM   21  C   UNK N   1      21.831  13.417   7.580  0.00  0.00     0.311 C 
BRANCH  21  22
HETATM   22  C   UNK N   1      22.110  13.238   9.034  0.00  0.00    -0.027 A 
HETATM   23  C   UNK N   1      23.439  13.053   9.430  0.00  0.00     0.054 A 
HETATM   24  C   UNK N   1      23.723  12.491  10.672  0.00  0.00     0.155 A 
HETATM   25  C   UNK N   1      22.678  12.104  11.518  0.00  0.00     0.154 A 
HETATM   26  F   UNK N   1      25.012  12.265  11.025  0.00  0.00    -0.203 F 
HETATM   27  C   UNK N   1      21.351  12.319  11.137  0.00  0.00     0.046 A 
HETATM   28  F   UNK N   1      22.948  11.498  12.698  0.00  0.00    -0.203 F 
HETATM   29  C   UNK N   1      21.066  12.865   9.885  0.00  0.00     0.012 A 
ENDBRANCH  21  22
ENDBRANCH   1  21
TORSDOF 5
ENDMDL
MODEL 4
REMARK VINA RESULT:      -7.3     12.548     14.582
REMARK  5 active torsions:
REMARK  status: ('A' for Active; 'I' for Inactive)
REMARK    1  A    between atoms: C_6  and  C_7 
REMARK    2  A    between atoms: C_7  and  N_8 
REMARK    3  A    between atoms: C_11  and  N_14 
REMARK    4  A    between atoms: N_14  and  C_15 
REMARK    5  A    between atoms: C_18  and  C_23 
ROOT
HETATM    1  N   UNK N   1      21.053  15.624   5.463  0.00  0.00     0.092 N 
HETATM    2  C   UNK N   1      21.830  15.111   4.308  0.00  0.00     0.275 C 
HETATM    3  C   UNK N   1      22.713  16.204   3.684  0.00  0.00     0.055 C 
HETATM    4  C   UNK N   1      21.907  17.467   3.376  0.00  0.00     0.086 C 
HETATM    5  C   UNK N   1      20.406  17.227   3.656  0.00  0.00     0.055 C 
HETATM    6  C   UNK N   1      20.236  16.800   5.124  0.00  0.00     0.275 C 
ENDROOT
BRANCH   4   7
HETATM    7  N   UNK N   1      22.365  18.568   4.203  0.00  0.00    -0.371 N 
HETATM    8  H   UNK N   1      21.725  19.130   4.696  0.00  0.00     0.161 HD
BRANCH   7   9
HETATM    9  C   UNK N   1      23.753  18.811   4.280  0.00  0.00     0.116 A 
HETATM   10  C   UNK N   1      24.326  19.799   3.472  0.00  0.00     0.052 A 
HETATM   11  C   UNK N   1      25.571  20.304   3.794  0.00  0.00     0.039 A 
HETATM   12  C   UNK N   1      26.214  19.839   4.937  0.00  0.00     0.132 A 
HETATM   13  N   UNK N   1      25.642  18.840   5.669  0.00  0.00    -0.295 N 
HETATM   14  N   UNK N   1      24.448  18.345   5.352  0.00  0.00    -0.285 N 
ATOM     15  HN  UNK N   1      26.141  18.463   6.476  1.00  0.00     0.187 HD
ATOM     16  HN  UNK N   1      24.047  17.602   5.924  1.00  0.00     0.188 HD
BRANCH  12  17
HETATM   17  C   UNK N   1      27.472  20.497   5.390  0.00  0.00     0.433 C 
HETATM   18  F   UNK N   1      28.464  20.362   4.436  0.00  0.00    -0.165 F 
HETATM   19  F   UNK N   1      27.243  21.837   5.631  0.00  0.00    -0.165 F 
HETATM   20  F   UNK N   1      27.897  19.888   6.559  0.00  0.00    -0.165 F 
ENDBRANCH  12  17
ENDBRANCH   7   9
ENDBRANCH   4   7
BRANCH   1  21
HETATM   21  C   UNK N   1      21.917  15.912   6.622  0.00  0.00     0.311 C 
BRANCH  21  22
HETATM   22  C   UNK N   1      21.760  14.791   7.591  0.00  0.00    -0.027 A 
HETATM   23  C   UNK N   1      20.614  14.771   8.394  0.00  0.00     0.054 A 
HETATM   24  C   UNK N   1      20.596  14.013   9.562  0.00  0.00     0.155 A 
HETATM   25  C   UNK N   1      21.728  13.280   9.936  0.00  0.00     0.154 A 
HETATM   26  F   UNK N   1      19.503  14.044  10.362  0.00  0.00    -0.203 F 
HETATM   27  C   UNK N   1      22.860  13.273   9.117  0.00  0.00     0.046 A 
HETATM   28  F   UNK N   1      21.738  12.594  11.102  0.00  0.00    -0.203 F 
HETATM   29  C   UNK N   1      22.885  14.045   7.956  0.00  0.00     0.012 A 
ENDBRANCH  21  22
ENDBRANCH   1  21
TORSDOF 5
ENDMDL
MODEL 5
REMARK VINA RESULT:      -7.2      1.570      2.325
REMARK  5 active torsions:
REMARK  status: ('A' for Active; 'I' for Inactive)
REMARK    1  A    between atoms: C_6  and  C_7 
REMARK    2  A    between atoms: C_7  and  N_8 
REMARK    3  A    between atoms: C_11  and  N_14 
REMARK    4  A    between atoms: N_14  and  C_15 
REMARK    5  A    between atoms: C_18  and  C_23 
ROOT
HETATM    1  N   UNK N   1      36.270  11.428  13.663  0.00  0.00     0.092 N 
HETATM    2  C   UNK N   1      36.678  12.615  14.453  0.00  0.00     0.275 C 
HETATM    3  C   UNK N   1      35.989  13.896  13.953  0.00  0.00     0.055 C 
HETATM    4  C   UNK N   1      36.158  14.069  12.443  0.00  0.00     0.086 C 
HETATM    5  C   UNK N   1      37.092  12.975  11.878  0.00  0.00     0.055 C 
HETATM    6  C   UNK N   1      36.503  11.595  12.220  0.00  0.00     0.275 C 
ENDROOT
BRANCH   4   7
HETATM    7  N   UNK N   1      34.870  13.972  11.781  0.00  0.00    -0.371 N 
HETATM    8  H   UNK N   1      34.341  13.143  11.825  0.00  0.00     0.161 HD
BRANCH   7   9
HETATM    9  C   UNK N   1      34.398  15.097  11.072  0.00  0.00     0.116 A 
HETATM   10  C   UNK N   1      35.304  16.074  10.646  0.00  0.00     0.052 A 
HETATM   11  C   UNK N   1      34.933  16.959   9.652  0.00  0.00     0.039 A 
HETATM   12  C   UNK N   1      33.673  16.836   9.074  0.00  0.00     0.132 A 
HETATM   13  N   UNK N   1      32.803  15.902   9.553  0.00  0.00    -0.295 N 
HETATM   14  N   UNK N   1      33.156  15.057  10.518  0.00  0.00    -0.285 N 
ATOM     15  HN  UNK N   1      31.861  15.850   9.164  1.00  0.00     0.187 HD
ATOM     16  HN  UNK N   1      32.483  14.367  10.850  1.00  0.00     0.188 HD
BRANCH  12  17
HETATM   17  C   UNK N   1      33.326  17.669   7.887  0.00  0.00     0.433 C 
HETATM   18  F   UNK N   1      32.587  18.774   8.266  0.00  0.00    -0.165 F 
HETATM   19  F   UNK N   1      34.479  18.082   7.248  0.00  0.00    -0.165 F 
HETATM   20  F   UNK N   1      32.568  16.907   7.015  0.00  0.00    -0.165 F 
ENDBRANCH  12  17
ENDBRANCH   7   9
ENDBRANCH   4   7
BRANCH   1  21
HETATM   21  C   UNK N   1      34.868  11.051  13.920  0.00  0.00     0.311 C 
BRANCH  21  22
HETATM   22  C   UNK N   1      34.870  10.000  14.976  0.00  0.00    -0.027 A 
HETATM   23  C   UNK N   1      34.461  10.361  16.264  0.00  0.00     0.054 A 
HETATM   24  C   UNK N   1      34.813   9.570  17.355  0.00  0.00     0.155 A 
HETATM   25  C   UNK N   1      35.585   8.419  17.161  0.00  0.00     0.154 A 
HETATM   26  F   UNK N   1      34.460   9.958  18.604  0.00  0.00    -0.203 F 
HETATM   27  C   UNK N   1      35.966   8.039  15.871  0.00  0.00     0.046 A 
HETATM   28  F   UNK N   1      35.984   7.682  18.223  0.00  0.00    -0.203 F 
HETATM   29  C   UNK N   1      35.628   8.841  14.780  0.00  0.00     0.012 A 
ENDBRANCH  21  22
ENDBRANCH   1  21
TORSDOF 5
ENDMDL
MODEL 6
REMARK VINA RESULT:      -7.1      2.233      8.418
REMARK  5 active torsions:
REMARK  status: ('A' for Active; 'I' for Inactive)
REMARK    1  A    between atoms: C_6  and  C_7 
REMARK    2  A    between atoms: C_7  and  N_8 
REMARK    3  A    between atoms: C_11  and  N_14 
REMARK    4  A    between atoms: N_14  and  C_15 
REMARK    5  A    between atoms: C_18  and  C_23 
ROOT
HETATM    1  N   UNK N   1      36.245  13.888   9.092  0.00  0.00     0.092 N 
HETATM    2  C   UNK N   1      35.889  12.448   9.154  0.00  0.00     0.275 C 
HETATM    3  C   UNK N   1      36.343  11.806  10.477  0.00  0.00     0.055 C 
HETATM    4  C   UNK N   1      37.818  12.093  10.760  0.00  0.00     0.086 C 
HETATM    5  C   UNK N   1      38.461  12.831   9.565  0.00  0.00     0.055 C 
HETATM    6  C   UNK N   1      37.680  14.131   9.305  0.00  0.00     0.275 C 
ENDROOT
BRANCH   4   7
HETATM    7  N   UNK N   1      37.948  12.921  11.945  0.00  0.00    -0.371 N 
HETATM    8  H   UNK N   1      38.652  13.607  12.007  0.00  0.00     0.161 HD
BRANCH   7   9
HETATM    9  C   UNK N   1      37.040  12.716  13.005  0.00  0.00     0.116 A 
HETATM   10  C   UNK N   1      37.356  11.804  14.017  0.00  0.00     0.052 A 
HETATM   11  C   UNK N   1      36.685  11.867  15.224  0.00  0.00     0.039 A 
HETATM   12  C   UNK N   1      35.728  12.859  15.413  0.00  0.00     0.132 A 
HETATM   13  N   UNK N   1      35.415  13.696  14.383  0.00  0.00    -0.295 N 
HETATM   14  N   UNK N   1      36.054  13.629  13.218  0.00  0.00    -0.285 N 
ATOM     15  HN  UNK N   1      34.676  14.388  14.508  1.00  0.00     0.187 HD
ATOM     16  HN  UNK N   1      35.799  14.273  12.470  1.00  0.00     0.188 HD
BRANCH  12  17
HETATM   17  C   UNK N   1      35.123  13.047  16.763  0.00  0.00     0.433 C 
HETATM   18  F   UNK N   1      35.849  13.966  17.499  0.00  0.00    -0.165 F 
HETATM   19  F   UNK N   1      33.818  13.483  16.638  0.00  0.00    -0.165 F 
HETATM   20  F   UNK N   1      35.138  11.834  17.431  0.00  0.00    -0.165 F 
ENDBRANCH  12  17
ENDBRANCH   7   9
ENDBRANCH   4   7
BRANCH   1  21
HETATM   21  C   UNK N   1      35.440  14.694  10.028  0.00  0.00     0.311 C 
BRANCH  21  22
HETATM   22  C   UNK N   1      34.440  15.453   9.225  0.00  0.00    -0.027 A 
HETATM   23  C   UNK N   1      34.744  16.773   8.876  0.00  0.00     0.054 A 
HETATM   24  C   UNK N   1      33.726  17.645   8.496  0.00  0.00     0.155 A 
HETATM   25  C   UNK N   1      32.400  17.199   8.472  0.00  0.00     0.154 A 
HETATM   26  F   UNK N   1      34.022  18.936   8.213  0.00  0.00    -0.203 F 
HETATM   27  C   UNK N   1      32.100  15.872   8.788  0.00  0.00     0.046 A 
HETATM   28  F   UNK N   1      31.400  18.059   8.166  0.00  0.00    -0.203 F 
HETATM   29  C   UNK N   1      33.117  15.004   9.187  0.00  0.00     0.012 A 
ENDBRANCH  21  22
ENDBRANCH   1  21
TORSDOF 5
ENDMDL
MODEL 7
REMARK VINA RESULT:      -7.1      3.393      9.759
REMARK  5 active torsions:
REMARK  status: ('A' for Active; 'I' for Inactive)
REMARK    1  A    between atoms: C_6  and  C_7 
REMARK    2  A    between atoms: C_7  and  N_8 
REMARK    3  A    between atoms: C_11  and  N_14 
REMARK    4  A    between atoms: N_14  and  C_15 
REMARK    5  A    between atoms: C_18  and  C_23 
ROOT
HETATM    1  N   UNK N   1      34.015  15.036   6.855  0.00  0.00     0.092 N 
HETATM    2  C   UNK N   1      33.017  14.139   7.488  0.00  0.00     0.275 C 
HETATM    3  C   UNK N   1      33.311  13.922   8.982  0.00  0.00     0.055 C 
HETATM    4  C   UNK N   1      34.761  13.494   9.210  0.00  0.00     0.086 C 
HETATM    5  C   UNK N   1      35.474  13.269   7.857  0.00  0.00     0.055 C 
HETATM    6  C   UNK N   1      35.398  14.567   7.035  0.00  0.00     0.275 C 
ENDROOT
BRANCH   4   7
HETATM    7  N   UNK N   1      35.475  14.518   9.950  0.00  0.00    -0.371 N 
HETATM    8  H   UNK N   1      35.952  15.240   9.481  0.00  0.00     0.161 HD
BRANCH   7   9
HETATM    9  C   UNK N   1      35.468  14.449  11.359  0.00  0.00     0.116 A 
HETATM   10  C   UNK N   1      35.049  13.274  11.991  0.00  0.00     0.052 A 
HETATM   11  C   UNK N   1      35.386  13.054  13.312  0.00  0.00     0.039 A 
HETATM   12  C   UNK N   1      36.164  13.996  13.977  0.00  0.00     0.132 A 
HETATM   13  N   UNK N   1      36.509  15.152  13.339  0.00  0.00    -0.295 N 
HETATM   14  N   UNK N   1      36.175  15.369  12.070  0.00  0.00    -0.285 N 
ATOM     15  HN  UNK N   1      37.034  15.864  13.847  1.00  0.00     0.187 HD
ATOM     16  HN  UNK N   1      36.454  16.241  11.621  1.00  0.00     0.188 HD
BRANCH  12  17
HETATM   17  C   UNK N   1      36.679  13.692  15.343  0.00  0.00     0.433 C 
HETATM   18  F   UNK N   1      35.635  13.572  16.242  0.00  0.00    -0.165 F 
HETATM   19  F   UNK N   1      37.406  12.518  15.321  0.00  0.00    -0.165 F 
HETATM   20  F   UNK N   1      37.498  14.730  15.752  0.00  0.00    -0.165 F 
ENDBRANCH  12  17
ENDBRANCH   7   9
ENDBRANCH   4   7
BRANCH   1  21
HETATM   21  C   UNK N   1      33.877  16.428   7.322  0.00  0.00     0.311 C 
BRANCH  21  22
HETATM   22  C   UNK N   1      32.809  17.073   6.507  0.00  0.00    -0.027 A 
HETATM   23  C   UNK N   1      31.516  17.120   7.038  0.00  0.00     0.054 A 
HETATM   24  C   UNK N   1      30.425  17.328   6.198  0.00  0.00     0.155 A 
HETATM   25  C   UNK N   1      30.624  17.481   4.821  0.00  0.00     0.154 A 
HETATM   26  F   UNK N   1      29.172  17.317   6.713  0.00  0.00    -0.203 F 
HETATM   27  C   UNK N   1      31.919  17.467   4.294  0.00  0.00     0.046 A 
HETATM   28  F   UNK N   1      29.564  17.619   3.992  0.00  0.00    -0.203 F 
HETATM   29  C   UNK N   1      33.010  17.240   5.134  0.00  0.00     0.012 A 
ENDBRANCH  21  22
ENDBRANCH   1  21
TORSDOF 5
ENDMDL
MODEL 8
REMARK VINA RESULT:      -7.0      5.289      8.113
REMARK  5 active torsions:
REMARK  status: ('A' for Active; 'I' for Inactive)
REMARK    1  A    between atoms: C_6  and  C_7 
REMARK    2  A    between atoms: C_7  and  N_8 
REMARK    3  A    between atoms: C_11  and  N_14 
REMARK    4  A    between atoms: N_14  and  C_15 
REMARK    5  A    between atoms: C_18  and  C_23 
ROOT
HETATM    1  N   UNK N   1      33.287  15.303   7.017  0.00  0.00     0.092 N 
HETATM    2  C   UNK N   1      33.620  16.244   5.919  0.00  0.00     0.275 C 
HETATM    3  C   UNK N   1      32.375  16.991   5.411  0.00  0.00     0.055 C 
HETATM    4  C   UNK N   1      31.241  16.022   5.074  0.00  0.00     0.086 C 
HETATM    5  C   UNK N   1      31.724  14.560   5.212  0.00  0.00     0.055 C 
HETATM    6  C   UNK N   1      32.239  14.340   6.644  0.00  0.00     0.275 C 
ENDROOT
BRANCH   4   7
HETATM    7  N   UNK N   1      30.120  16.229   5.973  0.00  0.00    -0.371 N 
HETATM    8  H   UNK N   1      29.768  15.490   6.520  0.00  0.00     0.161 HD
BRANCH   7   9
HETATM    9  C   UNK N   1      29.551  17.518   6.042  0.00  0.00     0.116 A 
HETATM   10  C   UNK N   1      29.073  18.124   4.876  0.00  0.00     0.052 A 
HETATM   11  C   UNK N   1      28.193  19.185   4.971  0.00  0.00     0.039 A 
HETATM   12  C   UNK N   1      27.777  19.606   6.230  0.00  0.00     0.132 A 
HETATM   13  N   UNK N   1      28.306  19.020   7.343  0.00  0.00    -0.295 N 
HETATM   14  N   UNK N   1      29.162  18.006   7.251  0.00  0.00    -0.285 N 
ATOM     15  HN  UNK N   1      28.039  19.367   8.265  1.00  0.00     0.187 HD
ATOM     16  HN  UNK N   1      29.534  17.587   8.102  1.00  0.00     0.188 HD
BRANCH  12  17
HETATM   17  C   UNK N   1      26.699  20.630   6.343  0.00  0.00     0.433 C 
HETATM   18  F   UNK N   1      25.545  20.194   5.718  0.00  0.00    -0.165 F 
HETATM   19  F   UNK N   1      26.434  20.890   7.674  0.00  0.00    -0.165 F 
HETATM   20  F   UNK N   1      27.124  21.795   5.726  0.00  0.00    -0.165 F 
ENDBRANCH  12  17
ENDBRANCH   7   9
ENDBRANCH   4   7
BRANCH   1  21
HETATM   21  C   UNK N   1      32.921  16.011   8.257  0.00  0.00     0.311 C 
BRANCH  21  22
HETATM   22  C   UNK N   1      33.998  15.757   9.256  0.00  0.00    -0.027 A 
HETATM   23  C   UNK N   1      33.906  14.603  10.041  0.00  0.00     0.054 A 
HETATM   24  C   UNK N   1      34.623  14.511  11.231  0.00  0.00     0.155 A 
HETATM   25  C   UNK N   1      35.429  15.578  11.643  0.00  0.00     0.154 A 
HETATM   26  F   UNK N   1      34.485  13.413  12.013  0.00  0.00    -0.203 F 
HETATM   27  C   UNK N   1      35.547  16.718  10.843  0.00  0.00     0.046 A 
HETATM   28  F   UNK N   1      36.077  15.521  12.830  0.00  0.00    -0.203 F 
HETATM   29  C   UNK N   1      34.815  16.817   9.660  0.00  0.00     0.012 A 
ENDBRANCH  21  22
ENDBRANCH   1  21
TORSDOF 5
ENDMDL
MODEL 9
REMARK VINA RESULT:      -6.9      1.678      2.269
REMARK  5 active torsions:
REMARK  status: ('A' for Active; 'I' for Inactive)
REMARK    1  A    between atoms: C_6  and  C_7 
REMARK    2  A    between atoms: C_7  and  N_8 
REMARK    3  A    between atoms: C_11  and  N_14 
REMARK    4  A    between atoms: N_14  and  C_15 
REMARK    5  A    between atoms: C_18  and  C_23 
ROOT
HETATM    1  N   UNK N   1      35.244  11.108  12.340  0.00  0.00     0.092 N 
HETATM    2  C   UNK N   1      36.337  11.339  11.363  0.00  0.00     0.275 C 
HETATM    3  C   UNK N   1      35.869  12.200  10.178  0.00  0.00     0.055 C 
HETATM    4  C   UNK N   1      34.587  11.646   9.555  0.00  0.00     0.086 C 
HETATM    5  C   UNK N   1      34.209  10.299  10.213  0.00  0.00     0.055 C 
HETATM    6  C   UNK N   1      34.046  10.515  11.727  0.00  0.00     0.275 C 
ENDROOT
BRANCH   4   7
HETATM    7  N   UNK N   1      33.493  12.580   9.744  0.00  0.00    -0.371 N 
HETATM    8  H   UNK N   1      32.646  12.291  10.154  0.00  0.00     0.161 HD
BRANCH   7   9
HETATM    9  C   UNK N   1      33.676  13.915   9.324  0.00  0.00     0.116 A 
HETATM   10  C   UNK N   1      33.828  14.194   7.962  0.00  0.00     0.052 A 
HETATM   11  C   UNK N   1      33.629  15.483   7.505  0.00  0.00     0.039 A 
HETATM   12  C   UNK N   1      33.251  16.469   8.410  0.00  0.00     0.132 A 
HETATM   13  N   UNK N   1      33.162  16.165   9.737  0.00  0.00    -0.295 N 
HETATM   14  N   UNK N   1      33.365  14.926  10.178  0.00  0.00    -0.285 N 
ATOM     15  HN  UNK N   1      32.937  16.903  10.405  1.00  0.00     0.187 HD
ATOM     16  HN  UNK N   1      33.286  14.732  11.176  1.00  0.00     0.188 HD
BRANCH  12  17
HETATM   17  C   UNK N   1      32.866  17.819   7.907  0.00  0.00     0.433 C 
HETATM   18  F   UNK N   1      32.628  17.782   6.545  0.00  0.00    -0.165 F 
HETATM   19  F   UNK N   1      31.732  18.260   8.561  0.00  0.00    -0.165 F 
HETATM   20  F   UNK N   1      33.906  18.700   8.151  0.00  0.00    -0.165 F 
ENDBRANCH  12  17
ENDBRANCH   7   9
ENDBRANCH   4   7
BRANCH   1  21
HETATM   21  C   UNK N   1      34.894  12.339  13.073  0.00  0.00     0.311 C 
BRANCH  21  22
HETATM   22  C   UNK N   1      35.263  12.132  14.503  0.00  0.00    -0.027 A 
HETATM   23  C   UNK N   1      34.839  10.955  15.127  0.00  0.00     0.054 A 
HETATM   24  C   UNK N   1      34.793  10.882  16.517  0.00  0.00     0.155 A 
HETATM   25  C   UNK N   1      35.164  11.991  17.286  0.00  0.00     0.154 A 
HETATM   26  F   UNK N   1      34.328   9.758  17.113  0.00  0.00    -0.203 F 
HETATM   27  C   UNK N   1      35.620  13.156  16.663  0.00  0.00     0.046 A 
HETATM   28  F   UNK N   1      35.060  11.948  18.635  0.00  0.00    -0.203 F 
HETATM   29  C   UNK N   1      35.648  13.235  15.271  0.00  0.00     0.012 A 
ENDBRANCH  21  22
ENDBRANCH   1  21
TORSDOF 5
ENDMDL
