REMARK  18 active torsions:
REMARK  status: ('A' for Active; 'I' for Inactive)
REMARK    1  A    between atoms: C_4  and  O_60 
REMARK    2  A    between atoms: C_8  and  O_58 
REMARK    3  A    between atoms: C_11  and  O_53 
REMARK    4  A    between atoms: C_13  and  O_42 
REMARK    5  A    between atoms: C_14  and  O_41 
REMARK    6  A    between atoms: C_19  and  O_20 
REMARK    7  A    between atoms: O_20  and  C_21 
REMARK    8  A    between atoms: C_21  and  C_23 
REMARK    9  A    between atoms: C_23  and  C_24 
REMARK   10  A    between atoms: C_23  and  O_40 
REMARK   11  A    between atoms: C_24  and  C_25 
REMARK   12  A    between atoms: C_24  and  N_31 
REMARK       I    between atoms: N_31  and  C_32 
REMARK   13  A    between atoms: C_32  and  C_34 
REMARK   14  A    between atoms: O_42  and  C_43 
REMARK   15  A    between atoms: C_43  and  C_45 
REMARK   16  A    between atoms: O_53  and  C_54 
REMARK   17  A    between atoms: C_54  and  O_56 
REMARK   18  A    between atoms: O_60  and  C_61 
ROOT
HETATM    1  C   UNK N   1      -1.491  -1.276  -1.823  0.00  0.00     0.046 C 
HETATM    2  C   UNK N   1      -0.646  -0.664  -0.758  0.00  0.00    -0.048 C 
HETATM    3  C   UNK N   1       0.453  -1.304  -0.294  0.00  0.00    -0.028 C 
HETATM    4  C   UNK N   1       1.138  -2.649  -0.642  0.00  0.00     0.232 C 
HETATM    5  C   UNK N   1       2.771  -2.708  -0.560  0.00  0.00     0.171 C 
HETATM    6  O   UNK N   1       3.237  -3.476  -1.387  0.00  0.00    -0.294 OA
HETATM    7  C   UNK N   1       3.895  -1.840   0.389  0.00  0.00     0.055 C 
HETATM    8  C   UNK N   1       5.278  -2.213  -0.197  0.00  0.00     0.137 C 
HETATM    9  C   UNK N   1       5.724  -1.293  -1.315  0.00  0.00     0.068 C 
HETATM   10  C   UNK N   1       6.302  -0.029  -0.650  0.00  0.00     0.162 C 
HETATM   11  C   UNK N   1       5.472   0.471   0.535  0.00  0.00     0.127 C 
HETATM   12  C   UNK N   1       4.013  -0.109   0.658  0.00  0.00     0.076 C 
HETATM   13  C   UNK N   1       2.881   1.081   1.188  0.00  0.00     0.176 C 
HETATM   14  C   UNK N   1       1.300   0.822   0.978  0.00  0.00     0.098 C 
HETATM   15  C   UNK N   1       1.365  -0.519   0.405  0.00  0.00     0.013 C 
HETATM   16  C   UNK N   1       1.556  -1.388   1.695  0.00  0.00     0.023 C 
HETATM   17  C   UNK N   1       2.102  -0.187  -1.021  0.00  0.00     0.023 C 
HETATM   18  C   UNK N   1       0.425   1.624  -0.023  0.00  0.00     0.078 C 
HETATM   19  C   UNK N   1      -0.868   0.779  -0.236  0.00  0.00     0.164 C 
HETATM   20  C   UNK N   1       6.551  -0.196   1.346  0.00  0.00     0.210 C 
HETATM   21  O   UNK N   1       7.347  -0.432   0.204  0.00  0.00    -0.380 OA
HETATM   22  C   UNK N   1       4.002  -2.525   1.753  0.00  0.00     0.027 C 
ENDROOT
BRANCH  19  23
HETATM   23  O   UNK N   1      -1.904   1.475  -0.785  0.00  0.00    -0.309 OA
BRANCH  23  24
HETATM   24  C   UNK N   1      -2.475   2.506  -0.113  0.00  0.00     0.290 C 
HETATM   25  O   UNK N   1      -1.871   3.113   0.761  0.00  0.00    -0.262 OA
BRANCH  24  26
HETATM   26  C   UNK N   1      -3.884   2.843  -0.396  0.00  0.00     0.244 C 
BRANCH  26  27
HETATM   27  C   UNK N   1      -4.819   1.685  -0.022  0.00  0.00     0.156 C 
BRANCH  27  28
HETATM   28  C   UNK N   1      -4.453   0.262  -0.339  0.00  0.00    -0.033 A 
HETATM   29  C   UNK N   1      -3.695  -0.490   0.576  0.00  0.00     0.009 A 
HETATM   30  C   UNK N   1      -3.499  -1.858   0.376  0.00  0.00     0.001 A 
HETATM   31  C   UNK N   1      -4.067  -2.486  -0.736  0.00  0.00     0.000 A 
HETATM   32  C   UNK N   1      -4.827  -1.744  -1.646  0.00  0.00     0.001 A 
HETATM   33  C   UNK N   1      -5.035  -0.376  -1.438  0.00  0.00     0.009 A 
ENDBRANCH  27  28
BRANCH  27  34
HETATM   34  N   UNK N   1      -5.312   1.736   1.332  0.00  0.00    -0.345 N 
HETATM   35  C   UNK N   1      -6.644   1.747   1.590  0.00  0.00     0.252 C 
HETATM   36  O   UNK N   1      -7.028   1.449   2.710  0.00  0.00    -0.268 OA
HETATM   37  H   UNK N   1      -4.673   1.764   2.080  0.00  0.00     0.163 HD
BRANCH  35  38
HETATM   38  C   UNK N   1      -7.644   2.044   0.527  0.00  0.00     0.032 A 
HETATM   39  C   UNK N   1      -8.957   1.572   0.640  0.00  0.00     0.017 A 
HETATM   40  C   UNK N   1      -9.893   1.853  -0.361  0.00  0.00     0.001 A 
HETATM   41  C   UNK N   1      -9.532   2.634  -1.463  0.00  0.00     0.000 A 
HETATM   42  C   UNK N   1      -8.233   3.131  -1.571  0.00  0.00     0.001 A 
HETATM   43  C   UNK N   1      -7.296   2.831  -0.585  0.00  0.00     0.017 A 
ENDBRANCH  35  38
ENDBRANCH  27  34
ENDBRANCH  26  27
BRANCH  26  44
HETATM   44  O   UNK N   1      -4.019   3.154  -1.748  0.00  0.00    -0.383 OA
HETATM   45  H   UNK N   1      -3.878   3.344  -2.689  0.00  0.00     0.210 HD
ENDBRANCH  26  44
ENDBRANCH  24  26
ENDBRANCH  23  24
ENDBRANCH  19  23
BRANCH  14  46
HETATM   46  O   UNK N   1       0.638   0.900   2.221  0.00  0.00    -0.386 OA
HETATM   47  H   UNK N   1       0.456   1.321   3.075  0.00  0.00     0.210 HD
ENDBRANCH  14  46
BRANCH  13  48
HETATM   48  O   UNK N   1       3.148   2.375   0.711  0.00  0.00    -0.308 OA
BRANCH  48  49
HETATM   49  C   UNK N   1       2.448   3.500   1.086  0.00  0.00     0.293 C 
HETATM   50  O   UNK N   1       1.620   3.435   1.984  0.00  0.00    -0.259 OA
BRANCH  49  51
HETATM   51  C   UNK N   1       2.622   4.803   0.386  0.00  0.00     0.039 A 
HETATM   52  C   UNK N   1       1.751   5.869   0.679  0.00  0.00     0.017 A 
HETATM   53  C   UNK N   1       1.904   7.109   0.052  0.00  0.00     0.001 A 
HETATM   54  C   UNK N   1       2.941   7.305  -0.861  0.00  0.00     0.000 A 
HETATM   55  C   UNK N   1       3.808   6.251  -1.165  0.00  0.00     0.001 A 
HETATM   56  C   UNK N   1       3.640   5.002  -0.554  0.00  0.00     0.017 A 
ENDBRANCH  49  51
ENDBRANCH  48  49
ENDBRANCH  13  48
BRANCH   4  57
HETATM   57  O   UNK N   1       0.408  -3.769  -0.272  0.00  0.00    -0.304 OA
BRANCH  57  58
HETATM   58  C   UNK N   1       0.628  -4.549   0.818  0.00  0.00     0.255 C 
HETATM   59  O   UNK N   1       1.628  -4.414   1.503  0.00  0.00    -0.266 OA
HETATM   60  C   UNK N   1      -0.374  -5.590   1.184  0.00  0.00     0.126 C 
ENDBRANCH  57  58
ENDBRANCH   4  57
BRANCH  11  61
HETATM   61  O   UNK N   1       5.613   1.824   0.805  0.00  0.00    -0.281 OA
BRANCH  61  62
HETATM   62  C   UNK N   1       5.850   2.817  -0.102  0.00  0.00     0.407 C 
HETATM   63  O   UNK N   1       5.703   2.625  -1.293  0.00  0.00    -0.229 OA
BRANCH  62  64
HETATM   64  O   UNK N   1       6.222   4.043   0.338  0.00  0.00    -0.303 OA
HETATM   65  C   UNK N   1       6.381   4.319   1.673  0.00  0.00     0.215 C 
ENDBRANCH  62  64
ENDBRANCH  61  62
ENDBRANCH  11  61
BRANCH   8  66
HETATM   66  O   UNK N   1       5.533  -3.567  -0.442  0.00  0.00    -0.394 OA
HETATM   67  H   UNK N   1       4.808  -4.189  -0.613  0.00  0.00     0.210 HD
ENDBRANCH   8  66
TORSDOF 18
