MODEL 1
REMARK VINA RESULT:      -9.5      0.000      0.000
REMARK  15 active torsions:
REMARK  status: ('A' for Active; 'I' for Inactive)
REMARK    1  A    between atoms: C_4  and  C_7 
REMARK    2  A    between atoms: C_7  and  C_8 
REMARK    3  A    between atoms: C_8  and  C_9 
REMARK    4  A    between atoms: C_8  and  N_21 
REMARK       I    between atoms: C_9  and  N_11 
REMARK    5  A    between atoms: N_11  and  C_12 
REMARK    6  A    between atoms: C_12  and  C_18 
REMARK       I    between atoms: C_18  and  N_20 
REMARK       I    between atoms: N_21  and  C_22 
REMARK    7  A    between atoms: C_22  and  C_24 
REMARK    8  A    between atoms: C_24  and  C_25 
REMARK    9  A    between atoms: C_24  and  N_35 
REMARK   10  A    between atoms: C_25  and  C_26 
REMARK       I    between atoms: N_35  and  C_36 
REMARK   11  A    between atoms: C_36  and  C_38 
REMARK   12  A    between atoms: C_38  and  C_39 
REMARK   13  A    between atoms: C_38  and  N_49 
REMARK   14  A    between atoms: C_39  and  C_40 
REMARK       I    between atoms: N_49  and  C_50 
REMARK   15  A    between atoms: C_50  and  C_52 
ROOT
HETATM    1  C   UNK N   1      25.399  14.593   6.494  0.00  0.00     0.181 C 
ENDROOT
BRANCH   1   2
HETATM    2  C   UNK N   1      26.628  15.434   6.311  0.00  0.00     0.241 C 
HETATM    3  N   UNK N   1      26.619  16.746   6.658  0.00  0.00    -0.346 N 
HETATM    4  H   UNK N   1      25.803  17.104   7.076  0.00  0.00     0.163 HD
HETATM    5  O   UNK N   1      27.630  14.917   5.843  0.00  0.00    -0.271 OA
BRANCH   3   6
HETATM    6  C   UNK N   1      27.728  17.653   6.458  0.00  0.00     0.180 C 
BRANCH   6   7
HETATM    7  C   UNK N   1      27.381  19.146   6.362  0.00  0.00     0.073 C 
BRANCH   7   8
HETATM    8  C   UNK N   1      26.602  19.522   5.139  0.00  0.00    -0.056 A 
HETATM    9  C   UNK N   1      27.183  20.292   4.122  0.00  0.00     0.007 A 
HETATM   10  C   UNK N   1      26.440  20.636   2.989  0.00  0.00     0.001 A 
HETATM   11  C   UNK N   1      25.111  20.220   2.876  0.00  0.00     0.000 A 
HETATM   12  C   UNK N   1      24.525  19.461   3.892  0.00  0.00     0.001 A 
HETATM   13  C   UNK N   1      25.271  19.111   5.023  0.00  0.00     0.007 A 
ENDBRANCH   7   8
ENDBRANCH   6   7
BRANCH   6  14
HETATM   14  C   UNK N   1      28.999  17.206   7.116  0.00  0.00     0.241 C 
HETATM   15  O   UNK N   1      29.010  16.984   8.316  0.00  0.00    -0.271 OA
HETATM   16  N   UNK N   1      30.117  17.050   6.358  0.00  0.00    -0.341 N 
HETATM   17  H   UNK N   1      30.027  17.225   5.393  0.00  0.00     0.163 HD
BRANCH  16  18
HETATM   18  C   UNK N   1      31.433  16.650   6.827  0.00  0.00     0.116 C 
HETATM   19  C   UNK N   1      32.443  17.199   5.803  0.00  0.00     0.060 C 
HETATM   20  C   UNK N   1      33.862  16.622   5.957  0.00  0.00     0.116 C 
HETATM   21  N   UNK N   1      33.958  15.660   7.055  0.00  0.00    -0.421 N 
HETATM   22  C   UNK N   1      32.986  14.589   6.841  0.00  0.00     0.116 C 
HETATM   23  H   UNK N   1      34.600  15.725   7.845  0.00  0.00     0.153 HD
HETATM   24  C   UNK N   1      31.540  15.113   6.826  0.00  0.00     0.060 C 
BRANCH  18  25
HETATM   25  C   UNK N   1      31.706  17.221   8.220  0.00  0.00     0.243 C 
HETATM   26  O   UNK N   1      32.053  18.386   8.356  0.00  0.00    -0.271 OA
HETATM   27  N   UNK N   1      31.572  16.448   9.317  0.00  0.00    -0.368 N 
HETATM   28  H   UNK N   1      31.522  15.802  10.058  0.00  0.00     0.159 HD
HETATM   29  H   UNK N   1      31.159  17.170   9.843  0.00  0.00     0.159 HD
ENDBRANCH  18  25
ENDBRANCH  16  18
ENDBRANCH   6  14
ENDBRANCH   3   6
ENDBRANCH   1   2
BRANCH   1  30
HETATM   30  C   UNK N   1      25.342  13.754   7.787  0.00  0.00     0.075 C 
BRANCH  30  31
HETATM   31  C   UNK N   1      23.998  13.570   8.433  0.00  0.00    -0.028 A 
HETATM   32  C   UNK N   1      22.760  13.911   7.898  0.00  0.00     0.096 A 
HETATM   33  N   UNK N   1      21.775  13.566   8.765  0.00  0.00    -0.365 N 
HETATM   34  C   UNK N   1      22.388  13.001   9.820  0.00  0.00     0.042 A 
HETATM   35  H   UNK N   1      20.807  13.703   8.646  0.00  0.00     0.165 HD
HETATM   36  C   UNK N   1      23.743  12.983   9.647  0.00  0.00    -0.002 A 
HETATM   37  C   UNK N   1      21.780  12.472  10.953  0.00  0.00     0.030 A 
HETATM   38  C   UNK N   1      24.595  12.423  10.598  0.00  0.00     0.014 A 
HETATM   39  C   UNK N   1      24.013  11.879  11.759  0.00  0.00     0.001 A 
HETATM   40  C   UNK N   1      22.611  11.906  11.937  0.00  0.00     0.002 A 
ENDBRANCH  30  31
ENDBRANCH   1  30
BRANCH   1  41
HETATM   41  N   UNK N   1      24.940  13.935   5.281  0.00  0.00    -0.346 N 
HETATM   42  C   UNK N   1      24.111  14.499   4.364  0.00  0.00     0.241 C 
HETATM   43  O   UNK N   1      23.702  15.639   4.508  0.00  0.00    -0.271 OA
HETATM   44  H   UNK N   1      25.250  13.015   5.114  0.00  0.00     0.163 HD
BRANCH  42  45
HETATM   45  C   UNK N   1      23.736  13.761   3.115  0.00  0.00     0.180 C 
BRANCH  45  46
HETATM   46  C   UNK N   1      24.628  14.092   1.912  0.00  0.00     0.074 C 
BRANCH  46  47
HETATM   47  C   UNK N   1      26.085  13.770   2.055  0.00  0.00    -0.038 A 
HETATM   48  C   UNK N   1      26.596  12.486   1.781  0.00  0.00     0.058 A 
HETATM   49  S   UNK N   1      28.251  12.592   2.000  0.00  0.00    -0.101 SA
HETATM   50  C   UNK N   1      28.373  14.185   2.413  0.00  0.00     0.015 A 
HETATM   51  C   UNK N   1      27.091  14.720   2.401  0.00  0.00    -0.012 A 
HETATM   52  C   UNK N   1      29.499  14.942   2.713  0.00  0.00     0.019 A 
HETATM   53  C   UNK N   1      26.899  16.072   2.694  0.00  0.00     0.013 A 
HETATM   54  C   UNK N   1      28.019  16.862   3.007  0.00  0.00     0.001 A 
HETATM   55  C   UNK N   1      29.313  16.300   3.018  0.00  0.00     0.001 A 
ENDBRANCH  46  47
ENDBRANCH  45  46
BRANCH  45  56
HETATM   56  N   UNK N   1      22.322  13.848   2.800  0.00  0.00    -0.347 N 
HETATM   57  C   UNK N   1      21.838  14.392   1.649  0.00  0.00     0.222 C 
HETATM   58  O   UNK N   1      22.604  14.770   0.774  0.00  0.00    -0.273 OA
HETATM   59  H   UNK N   1      21.677  13.494   3.453  0.00  0.00     0.163 HD
BRANCH  57  60
HETATM   60  C   UNK N   1      20.353  14.540   1.426  0.00  0.00     0.081 C 
HETATM   61  C   UNK N   1      20.037  15.871   0.739  0.00  0.00     0.033 C 
HETATM   62  C   UNK N   1      20.260  17.031   1.707  0.00  0.00     0.114 C 
HETATM   63  N   UNK N   1      19.383  16.884   2.866  0.00  0.00    -0.421 N 
HETATM   64  C   UNK N   1      19.754  15.670   3.595  0.00  0.00     0.114 C 
HETATM   65  H   UNK N   1      18.632  17.523   3.126  0.00  0.00     0.153 HD
HETATM   66  C   UNK N   1      19.532  14.431   2.719  0.00  0.00     0.033 C 
ENDBRANCH  57  60
ENDBRANCH  45  56
ENDBRANCH  42  45
ENDBRANCH   1  41
TORSDOF 15
ENDMDL
MODEL 2
REMARK VINA RESULT:      -9.4      2.740      6.132
REMARK  15 active torsions:
REMARK  status: ('A' for Active; 'I' for Inactive)
REMARK    1  A    between atoms: C_4  and  C_7 
REMARK    2  A    between atoms: C_7  and  C_8 
REMARK    3  A    between atoms: C_8  and  C_9 
REMARK    4  A    between atoms: C_8  and  N_21 
REMARK       I    between atoms: C_9  and  N_11 
REMARK    5  A    between atoms: N_11  and  C_12 
REMARK    6  A    between atoms: C_12  and  C_18 
REMARK       I    between atoms: C_18  and  N_20 
REMARK       I    between atoms: N_21  and  C_22 
REMARK    7  A    between atoms: C_22  and  C_24 
REMARK    8  A    between atoms: C_24  and  C_25 
REMARK    9  A    between atoms: C_24  and  N_35 
REMARK   10  A    between atoms: C_25  and  C_26 
REMARK       I    between atoms: N_35  and  C_36 
REMARK   11  A    between atoms: C_36  and  C_38 
REMARK   12  A    between atoms: C_38  and  C_39 
REMARK   13  A    between atoms: C_38  and  N_49 
REMARK   14  A    between atoms: C_39  and  C_40 
REMARK       I    between atoms: N_49  and  C_50 
REMARK   15  A    between atoms: C_50  and  C_52 
ROOT
HETATM    1  C   UNK N   1      27.307  13.657   3.721  0.00  0.00     0.181 C 
ENDROOT
BRANCH   1   2
HETATM    2  C   UNK N   1      28.132  14.834   4.150  0.00  0.00     0.241 C 
HETATM    3  N   UNK N   1      28.494  14.981   5.450  0.00  0.00    -0.346 N 
HETATM    4  H   UNK N   1      28.242  14.267   6.079  0.00  0.00     0.163 HD
HETATM    5  O   UNK N   1      28.465  15.656   3.311  0.00  0.00    -0.271 OA
BRANCH   3   6
HETATM    6  C   UNK N   1      29.227  16.113   5.973  0.00  0.00     0.180 C 
BRANCH   6   7
HETATM    7  C   UNK N   1      28.459  17.046   6.920  0.00  0.00     0.073 C 
BRANCH   7   8
HETATM    8  C   UNK N   1      28.069  18.359   6.312  0.00  0.00    -0.056 A 
HETATM    9  C   UNK N   1      28.072  18.541   4.922  0.00  0.00     0.007 A 
HETATM   10  C   UNK N   1      27.709  19.773   4.374  0.00  0.00     0.001 A 
HETATM   11  C   UNK N   1      27.352  20.831   5.213  0.00  0.00     0.000 A 
HETATM   12  C   UNK N   1      27.357  20.657   6.600  0.00  0.00     0.001 A 
HETATM   13  C   UNK N   1      27.714  19.421   7.149  0.00  0.00     0.007 A 
ENDBRANCH   7   8
ENDBRANCH   6   7
BRANCH   6  14
HETATM   14  C   UNK N   1      30.685  15.839   6.189  0.00  0.00     0.241 C 
HETATM   15  O   UNK N   1      31.222  14.922   5.588  0.00  0.00    -0.271 OA
HETATM   16  N   UNK N   1      31.386  16.627   7.048  0.00  0.00    -0.341 N 
HETATM   17  H   UNK N   1      30.893  17.362   7.479  0.00  0.00     0.163 HD
BRANCH  16  18
HETATM   18  C   UNK N   1      32.791  16.494   7.396  0.00  0.00     0.116 C 
HETATM   19  C   UNK N   1      32.991  15.031   7.833  0.00  0.00     0.060 C 
HETATM   20  C   UNK N   1      34.339  14.768   8.529  0.00  0.00     0.116 C 
HETATM   21  N   UNK N   1      35.159  15.976   8.633  0.00  0.00    -0.421 N 
HETATM   22  C   UNK N   1      34.405  17.009   9.342  0.00  0.00     0.116 C 
HETATM   23  H   UNK N   1      36.105  16.082   8.269  0.00  0.00     0.153 HD
HETATM   24  C   UNK N   1      33.118  17.400   8.597  0.00  0.00     0.060 C 
BRANCH  18  25
HETATM   25  C   UNK N   1      33.677  16.827   6.194  0.00  0.00     0.243 C 
HETATM   26  O   UNK N   1      34.165  17.942   6.072  0.00  0.00    -0.271 OA
HETATM   27  N   UNK N   1      33.930  15.899   5.249  0.00  0.00    -0.368 N 
HETATM   28  H   UNK N   1      34.007  15.191   4.570  0.00  0.00     0.159 HD
HETATM   29  H   UNK N   1      34.873  16.166   5.159  0.00  0.00     0.159 HD
ENDBRANCH  18  25
ENDBRANCH  16  18
ENDBRANCH   6  14
ENDBRANCH   3   6
ENDBRANCH   1   2
BRANCH   1  30
HETATM   30  C   UNK N   1      27.440  13.245   2.239  0.00  0.00     0.075 C 
BRANCH  30  31
HETATM   31  C   UNK N   1      26.350  12.387   1.661  0.00  0.00    -0.028 A 
HETATM   32  C   UNK N   1      26.376  11.007   1.487  0.00  0.00     0.096 A 
HETATM   33  N   UNK N   1      25.197  10.588   0.962  0.00  0.00    -0.365 N 
HETATM   34  C   UNK N   1      24.438  11.689   0.827  0.00  0.00     0.042 A 
HETATM   35  H   UNK N   1      24.948   9.665   0.727  0.00  0.00     0.165 HD
HETATM   36  C   UNK N   1      25.109  12.802   1.248  0.00  0.00    -0.002 A 
HETATM   37  C   UNK N   1      23.135  11.749   0.346  0.00  0.00     0.030 A 
HETATM   38  C   UNK N   1      24.518  14.065   1.228  0.00  0.00     0.014 A 
HETATM   39  C   UNK N   1      23.199  14.163   0.746  0.00  0.00     0.001 A 
HETATM   40  C   UNK N   1      22.511  13.010   0.304  0.00  0.00     0.002 A 
ENDBRANCH  30  31
ENDBRANCH   1  30
BRANCH   1  41
HETATM   41  N   UNK N   1      25.963  13.635   4.274  0.00  0.00    -0.346 N 
HETATM   42  C   UNK N   1      25.440  12.602   4.987  0.00  0.00     0.241 C 
HETATM   43  O   UNK N   1      26.101  11.604   5.221  0.00  0.00    -0.271 OA
HETATM   44  H   UNK N   1      25.392  14.421   4.121  0.00  0.00     0.163 HD
BRANCH  42  45
HETATM   45  C   UNK N   1      24.061  12.694   5.567  0.00  0.00     0.180 C 
BRANCH  45  46
HETATM   46  C   UNK N   1      23.036  13.332   4.621  0.00  0.00     0.074 C 
BRANCH  46  47
HETATM   47  C   UNK N   1      22.420  14.621   5.078  0.00  0.00    -0.038 A 
HETATM   48  C   UNK N   1      21.220  14.654   5.816  0.00  0.00     0.058 A 
HETATM   49  S   UNK N   1      20.942  16.265   6.171  0.00  0.00    -0.101 SA
HETATM   50  C   UNK N   1      22.268  16.937   5.455  0.00  0.00     0.015 A 
HETATM   51  C   UNK N   1      23.006  15.907   4.888  0.00  0.00    -0.012 A 
HETATM   52  C   UNK N   1      22.667  18.268   5.394  0.00  0.00     0.019 A 
HETATM   53  C   UNK N   1      24.205  16.191   4.230  0.00  0.00     0.013 A 
HETATM   54  C   UNK N   1      24.632  17.528   4.148  0.00  0.00     0.001 A 
HETATM   55  C   UNK N   1      23.867  18.562   4.726  0.00  0.00     0.001 A 
ENDBRANCH  46  47
ENDBRANCH  45  46
BRANCH  45  56
HETATM   56  N   UNK N   1      24.034  13.280   6.894  0.00  0.00    -0.347 N 
HETATM   57  C   UNK N   1      23.843  12.559   8.033  0.00  0.00     0.222 C 
HETATM   58  O   UNK N   1      23.763  11.340   7.987  0.00  0.00    -0.273 OA
HETATM   59  H   UNK N   1      24.160  14.253   6.974  0.00  0.00     0.163 HD
BRANCH  57  60
HETATM   60  C   UNK N   1      23.730  13.244   9.373  0.00  0.00     0.081 C 
HETATM   61  C   UNK N   1      24.102  12.284  10.506  0.00  0.00     0.033 C 
HETATM   62  C   UNK N   1      23.018  11.222  10.676  0.00  0.00     0.114 C 
HETATM   63  N   UNK N   1      21.746  11.862  11.005  0.00  0.00    -0.421 N 
HETATM   64  C   UNK N   1      21.325  12.694   9.878  0.00  0.00     0.114 C 
HETATM   65  H   UNK N   1      21.235  11.748  11.880  0.00  0.00     0.153 HD
HETATM   66  C   UNK N   1      22.334  13.825   9.641  0.00  0.00     0.033 C 
ENDBRANCH  57  60
ENDBRANCH  45  56
ENDBRANCH  42  45
ENDBRANCH   1  41
TORSDOF 15
ENDMDL
MODEL 3
REMARK VINA RESULT:      -9.4     12.910     16.959
REMARK  15 active torsions:
REMARK  status: ('A' for Active; 'I' for Inactive)
REMARK    1  A    between atoms: C_4  and  C_7 
REMARK    2  A    between atoms: C_7  and  C_8 
REMARK    3  A    between atoms: C_8  and  C_9 
REMARK    4  A    between atoms: C_8  and  N_21 
REMARK       I    between atoms: C_9  and  N_11 
REMARK    5  A    between atoms: N_11  and  C_12 
REMARK    6  A    between atoms: C_12  and  C_18 
REMARK       I    between atoms: C_18  and  N_20 
REMARK       I    between atoms: N_21  and  C_22 
REMARK    7  A    between atoms: C_22  and  C_24 
REMARK    8  A    between atoms: C_24  and  C_25 
REMARK    9  A    between atoms: C_24  and  N_35 
REMARK   10  A    between atoms: C_25  and  C_26 
REMARK       I    between atoms: N_35  and  C_36 
REMARK   11  A    between atoms: C_36  and  C_38 
REMARK   12  A    between atoms: C_38  and  C_39 
REMARK   13  A    between atoms: C_38  and  N_49 
REMARK   14  A    between atoms: C_39  and  C_40 
REMARK       I    between atoms: N_49  and  C_50 
REMARK   15  A    between atoms: C_50  and  C_52 
ROOT
HETATM    1  C   UNK N   1      26.281  24.456  -5.346  0.00  0.00     0.181 C 
ENDROOT
BRANCH   1   2
HETATM    2  C   UNK N   1      26.145  23.329  -6.327  0.00  0.00     0.241 C 
HETATM    3  N   UNK N   1      27.107  23.111  -7.259  0.00  0.00    -0.346 N 
HETATM    4  H   UNK N   1      27.910  23.681  -7.231  0.00  0.00     0.163 HD
HETATM    5  O   UNK N   1      25.154  22.618  -6.273  0.00  0.00    -0.271 OA
BRANCH   3   6
HETATM    6  C   UNK N   1      27.035  22.098  -8.288  0.00  0.00     0.180 C 
BRANCH   6   7
HETATM    7  C   UNK N   1      26.228  22.456  -9.545  0.00  0.00     0.073 C 
BRANCH   7   8
HETATM    8  C   UNK N   1      26.360  23.883  -9.979  0.00  0.00    -0.056 A 
HETATM    9  C   UNK N   1      25.400  24.839  -9.622  0.00  0.00     0.007 A 
HETATM   10  C   UNK N   1      25.539  26.165 -10.039  0.00  0.00     0.001 A 
HETATM   11  C   UNK N   1      26.633  26.538 -10.823  0.00  0.00     0.000 A 
HETATM   12  C   UNK N   1      27.589  25.586 -11.190  0.00  0.00     0.001 A 
HETATM   13  C   UNK N   1      27.453  24.259 -10.767  0.00  0.00     0.007 A 
ENDBRANCH   7   8
ENDBRANCH   6   7
BRANCH   6  14
HETATM   14  C   UNK N   1      28.270  21.254  -8.391  0.00  0.00     0.241 C 
HETATM   15  O   UNK N   1      28.952  21.060  -7.397  0.00  0.00    -0.271 OA
HETATM   16  N   UNK N   1      28.603  20.711  -9.593  0.00  0.00    -0.341 N 
HETATM   17  H   UNK N   1      27.993  20.890 -10.345  0.00  0.00     0.163 HD
BRANCH  16  18
HETATM   18  C   UNK N   1      29.769  19.892  -9.880  0.00  0.00     0.116 C 
HETATM   19  C   UNK N   1      29.524  19.261 -11.263  0.00  0.00     0.060 C 
HETATM   20  C   UNK N   1      30.500  18.122 -11.610  0.00  0.00     0.116 C 
HETATM   21  N   UNK N   1      31.468  17.872 -10.541  0.00  0.00    -0.421 N 
HETATM   22  C   UNK N   1      30.750  17.576  -9.302  0.00  0.00     0.116 C 
HETATM   23  H   UNK N   1      32.482  17.899 -10.644  0.00  0.00     0.153 HD
HETATM   24  C   UNK N   1      29.872  18.754  -8.848  0.00  0.00     0.060 C 
BRANCH  18  25
HETATM   25  C   UNK N   1      31.039  20.745  -9.890  0.00  0.00     0.243 C 
HETATM   26  O   UNK N   1      31.855  20.655  -8.984  0.00  0.00    -0.271 OA
HETATM   27  N   UNK N   1      31.274  21.613 -10.894  0.00  0.00    -0.368 N 
HETATM   28  H   UNK N   1      31.336  22.272 -11.623  0.00  0.00     0.159 HD
HETATM   29  H   UNK N   1      32.233  21.397 -10.932  0.00  0.00     0.159 HD
ENDBRANCH  18  25
ENDBRANCH  16  18
ENDBRANCH   6  14
ENDBRANCH   3   6
ENDBRANCH   1   2
BRANCH   1  30
HETATM   30  C   UNK N   1      25.315  25.643  -5.545  0.00  0.00     0.075 C 
BRANCH  30  31
HETATM   31  C   UNK N   1      25.810  27.008  -5.157  0.00  0.00    -0.028 A 
HETATM   32  C   UNK N   1      25.476  27.724  -4.012  0.00  0.00     0.096 A 
HETATM   33  N   UNK N   1      26.145  28.904  -3.998  0.00  0.00    -0.365 N 
HETATM   34  C   UNK N   1      26.900  28.918  -5.110  0.00  0.00     0.042 A 
HETATM   35  H   UNK N   1      26.088  29.609  -3.312  0.00  0.00     0.165 HD
HETATM   36  C   UNK N   1      26.724  27.774  -5.837  0.00  0.00    -0.002 A 
HETATM   37  C   UNK N   1      27.775  29.921  -5.512  0.00  0.00     0.030 A 
HETATM   38  C   UNK N   1      27.420  27.545  -7.022  0.00  0.00     0.014 A 
HETATM   39  C   UNK N   1      28.314  28.541  -7.460  0.00  0.00     0.001 A 
HETATM   40  C   UNK N   1      28.489  29.726  -6.709  0.00  0.00     0.002 A 
ENDBRANCH  30  31
ENDBRANCH   1  30
BRANCH   1  41
HETATM   41  N   UNK N   1      27.654  24.795  -5.012  0.00  0.00    -0.346 N 
HETATM   42  C   UNK N   1      28.245  24.530  -3.817  0.00  0.00     0.241 C 
HETATM   43  O   UNK N   1      27.635  23.958  -2.930  0.00  0.00    -0.271 OA
HETATM   44  H   UNK N   1      28.193  25.251  -5.699  0.00  0.00     0.163 HD
BRANCH  42  45
HETATM   45  C   UNK N   1      29.687  24.869  -3.585  0.00  0.00     0.180 C 
BRANCH  45  46
HETATM   46  C   UNK N   1      30.125  26.183  -4.244  0.00  0.00     0.074 C 
BRANCH  46  47
HETATM   47  C   UNK N   1      31.301  26.102  -5.171  0.00  0.00    -0.038 A 
HETATM   48  C   UNK N   1      32.610  26.400  -4.744  0.00  0.00     0.058 A 
HETATM   49  S   UNK N   1      33.601  26.115  -6.061  0.00  0.00    -0.101 SA
HETATM   50  C   UNK N   1      32.469  25.618  -7.155  0.00  0.00     0.015 A 
HETATM   51  C   UNK N   1      31.233  25.656  -6.524  0.00  0.00    -0.012 A 
HETATM   52  C   UNK N   1      32.628  25.202  -8.471  0.00  0.00     0.019 A 
HETATM   53  C   UNK N   1      30.087  25.259  -7.217  0.00  0.00     0.013 A 
HETATM   54  C   UNK N   1      30.215  24.838  -8.552  0.00  0.00     0.001 A 
HETATM   55  C   UNK N   1      31.478  24.811  -9.178  0.00  0.00     0.001 A 
ENDBRANCH  46  47
ENDBRANCH  45  46
BRANCH  45  56
HETATM   56  N   UNK N   1      30.589  23.771  -3.880  0.00  0.00    -0.347 N 
HETATM   57  C   UNK N   1      31.104  22.942  -2.929  0.00  0.00     0.222 C 
HETATM   58  O   UNK N   1      30.752  23.046  -1.763  0.00  0.00    -0.273 OA
HETATM   59  H   UNK N   1      30.843  23.617  -4.818  0.00  0.00     0.163 HD
BRANCH  57  60
HETATM   60  C   UNK N   1      32.113  21.880  -3.292  0.00  0.00     0.081 C 
HETATM   61  C   UNK N   1      32.941  22.311  -4.505  0.00  0.00     0.033 C 
HETATM   62  C   UNK N   1      32.083  22.281  -5.768  0.00  0.00     0.114 C 
HETATM   63  N   UNK N   1      31.589  20.926  -5.998  0.00  0.00    -0.421 N 
HETATM   64  C   UNK N   1      30.702  20.548  -4.896  0.00  0.00     0.114 C 
HETATM   65  H   UNK N   1      31.824  20.337  -6.796  0.00  0.00     0.153 HD
HETATM   66  C   UNK N   1      31.478  20.511  -3.574  0.00  0.00     0.033 C 
ENDBRANCH  57  60
ENDBRANCH  45  56
ENDBRANCH  42  45
ENDBRANCH   1  41
TORSDOF 15
ENDMDL
MODEL 4
REMARK VINA RESULT:      -9.1      2.536      3.818
REMARK  15 active torsions:
REMARK  status: ('A' for Active; 'I' for Inactive)
REMARK    1  A    between atoms: C_4  and  C_7 
REMARK    2  A    between atoms: C_7  and  C_8 
REMARK    3  A    between atoms: C_8  and  C_9 
REMARK    4  A    between atoms: C_8  and  N_21 
REMARK       I    between atoms: C_9  and  N_11 
REMARK    5  A    between atoms: N_11  and  C_12 
REMARK    6  A    between atoms: C_12  and  C_18 
REMARK       I    between atoms: C_18  and  N_20 
REMARK       I    between atoms: N_21  and  C_22 
REMARK    7  A    between atoms: C_22  and  C_24 
REMARK    8  A    between atoms: C_24  and  C_25 
REMARK    9  A    between atoms: C_24  and  N_35 
REMARK   10  A    between atoms: C_25  and  C_26 
REMARK       I    between atoms: N_35  and  C_36 
REMARK   11  A    between atoms: C_36  and  C_38 
REMARK   12  A    between atoms: C_38  and  C_39 
REMARK   13  A    between atoms: C_38  and  N_49 
REMARK   14  A    between atoms: C_39  and  C_40 
REMARK       I    between atoms: N_49  and  C_50 
REMARK   15  A    between atoms: C_50  and  C_52 
ROOT
HETATM    1  C   UNK N   1      25.460  15.166   6.344  0.00  0.00     0.181 C 
ENDROOT
BRANCH   1   2
HETATM    2  C   UNK N   1      26.607  16.092   6.069  0.00  0.00     0.241 C 
HETATM    3  N   UNK N   1      27.549  16.319   7.020  0.00  0.00    -0.346 N 
HETATM    4  H   UNK N   1      27.478  15.818   7.865  0.00  0.00     0.163 HD
HETATM    5  O   UNK N   1      26.674  16.638   4.980  0.00  0.00    -0.271 OA
BRANCH   3   6
HETATM    6  C   UNK N   1      28.651  17.244   6.877  0.00  0.00     0.180 C 
BRANCH   6   7
HETATM    7  C   UNK N   1      28.496  18.605   7.571  0.00  0.00     0.073 C 
BRANCH   7   8
HETATM    8  C   UNK N   1      27.795  19.642   6.749  0.00  0.00    -0.056 A 
HETATM    9  C   UNK N   1      26.973  20.605   7.349  0.00  0.00     0.007 A 
HETATM   10  C   UNK N   1      26.324  21.563   6.566  0.00  0.00     0.001 A 
HETATM   11  C   UNK N   1      26.487  21.554   5.178  0.00  0.00     0.000 A 
HETATM   12  C   UNK N   1      27.299  20.589   4.574  0.00  0.00     0.001 A 
HETATM   13  C   UNK N   1      27.953  19.635   5.360  0.00  0.00     0.007 A 
ENDBRANCH   7   8
ENDBRANCH   6   7
BRANCH   6  14
HETATM   14  C   UNK N   1      29.991  16.577   6.796  0.00  0.00     0.241 C 
HETATM   15  O   UNK N   1      30.098  15.504   6.224  0.00  0.00    -0.271 OA
HETATM   16  N   UNK N   1      31.069  17.187   7.359  0.00  0.00    -0.341 N 
HETATM   17  H   UNK N   1      30.913  18.062   7.783  0.00  0.00     0.163 HD
BRANCH  16  18
HETATM   18  C   UNK N   1      32.431  16.679   7.397  0.00  0.00     0.116 C 
HETATM   19  C   UNK N   1      32.323  15.179   7.728  0.00  0.00     0.060 C 
HETATM   20  C   UNK N   1      33.663  14.529   8.114  0.00  0.00     0.116 C 
HETATM   21  N   UNK N   1      34.774  15.481   8.088  0.00  0.00    -0.421 N 
HETATM   22  C   UNK N   1      34.468  16.600   8.978  0.00  0.00     0.116 C 
HETATM   23  H   UNK N   1      35.626  15.381   7.537  0.00  0.00     0.153 HD
HETATM   24  C   UNK N   1      33.209  17.364   8.536  0.00  0.00     0.060 C 
BRANCH  18  25
HETATM   25  C   UNK N   1      33.123  16.890   6.050  0.00  0.00     0.243 C 
HETATM   26  O   UNK N   1      33.969  17.762   5.915  0.00  0.00    -0.271 OA
HETATM   27  N   UNK N   1      32.808  16.120   4.988  0.00  0.00    -0.368 N 
HETATM   28  H   UNK N   1      32.471  15.566   4.248  0.00  0.00     0.159 HD
HETATM   29  H   UNK N   1      33.743  16.048   4.691  0.00  0.00     0.159 HD
ENDBRANCH  18  25
ENDBRANCH  16  18
ENDBRANCH   6  14
ENDBRANCH   3   6
ENDBRANCH   1   2
BRANCH   1  30
HETATM   30  C   UNK N   1      25.832  13.690   6.600  0.00  0.00     0.075 C 
BRANCH  30  31
HETATM   31  C   UNK N   1      24.769  12.801   7.181  0.00  0.00    -0.028 A 
HETATM   32  C   UNK N   1      23.899  11.969   6.483  0.00  0.00     0.096 A 
HETATM   33  N   UNK N   1      23.103  11.302   7.354  0.00  0.00    -0.365 N 
HETATM   34  C   UNK N   1      23.480  11.697   8.582  0.00  0.00     0.042 A 
HETATM   35  H   UNK N   1      22.391  10.659   7.133  0.00  0.00     0.165 HD
HETATM   36  C   UNK N   1      24.498  12.607   8.513  0.00  0.00    -0.002 A 
HETATM   37  C   UNK N   1      22.958  11.263   9.796  0.00  0.00     0.030 A 
HETATM   38  C   UNK N   1      25.077  13.147   9.661  0.00  0.00     0.014 A 
HETATM   39  C   UNK N   1      24.572  12.730  10.907  0.00  0.00     0.001 A 
HETATM   40  C   UNK N   1      23.515  11.794  10.974  0.00  0.00     0.002 A 
ENDBRANCH  30  31
ENDBRANCH   1  30
BRANCH   1  41
HETATM   41  N   UNK N   1      24.291  15.397   5.511  0.00  0.00    -0.346 N 
HETATM   42  C   UNK N   1      24.111  14.866   4.273  0.00  0.00     0.241 C 
HETATM   43  O   UNK N   1      24.947  14.128   3.780  0.00  0.00    -0.271 OA
HETATM   44  H   UNK N   1      23.582  15.979   5.868  0.00  0.00     0.163 HD
BRANCH  42  45
HETATM   45  C   UNK N   1      22.844  15.118   3.510  0.00  0.00     0.180 C 
BRANCH  45  46
HETATM   46  C   UNK N   1      21.784  15.883   4.312  0.00  0.00     0.074 C 
BRANCH  46  47
HETATM   47  C   UNK N   1      21.233  17.123   3.672  0.00  0.00    -0.038 A 
HETATM   48  C   UNK N   1      19.880  17.231   3.298  0.00  0.00     0.058 A 
HETATM   49  S   UNK N   1      19.690  18.782   2.700  0.00  0.00    -0.101 SA
HETATM   50  C   UNK N   1      21.229  19.344   2.898  0.00  0.00     0.015 A 
HETATM   51  C   UNK N   1      21.982  18.317   3.452  0.00  0.00    -0.012 A 
HETATM   52  C   UNK N   1      21.762  20.595   2.613  0.00  0.00     0.019 A 
HETATM   53  C   UNK N   1      23.330  18.526   3.751  0.00  0.00     0.013 A 
HETATM   54  C   UNK N   1      23.899  19.781   3.470  0.00  0.00     0.001 A 
HETATM   55  C   UNK N   1      23.120  20.810   2.902  0.00  0.00     0.001 A 
ENDBRANCH  46  47
ENDBRANCH  45  46
BRANCH  45  56
HETATM   56  N   UNK N   1      22.311  13.926   2.876  0.00  0.00    -0.347 N 
HETATM   57  C   UNK N   1      21.814  13.905   1.608  0.00  0.00     0.222 C 
HETATM   58  O   UNK N   1      21.873  14.903   0.904  0.00  0.00    -0.273 OA
HETATM   59  H   UNK N   1      22.307  13.088   3.391  0.00  0.00     0.163 HD
BRANCH  57  60
HETATM   60  C   UNK N   1      21.185  12.655   1.044  0.00  0.00     0.081 C 
HETATM   61  C   UNK N   1      19.816  12.965   0.434  0.00  0.00     0.033 C 
HETATM   62  C   UNK N   1      18.805  13.277   1.535  0.00  0.00     0.114 C 
HETATM   63  N   UNK N   1      18.670  12.125   2.423  0.00  0.00    -0.421 N 
HETATM   64  C   UNK N   1      19.947  11.891   3.099  0.00  0.00     0.114 C 
HETATM   65  H   UNK N   1      17.823  11.571   2.552  0.00  0.00     0.153 HD
HETATM   66  C   UNK N   1      21.034  11.531   2.079  0.00  0.00     0.033 C 
ENDBRANCH  57  60
ENDBRANCH  45  56
ENDBRANCH  42  45
ENDBRANCH   1  41
TORSDOF 15
ENDMDL
MODEL 5
REMARK VINA RESULT:      -9.0      2.230      4.308
REMARK  15 active torsions:
REMARK  status: ('A' for Active; 'I' for Inactive)
REMARK    1  A    between atoms: C_4  and  C_7 
REMARK    2  A    between atoms: C_7  and  C_8 
REMARK    3  A    between atoms: C_8  and  C_9 
REMARK    4  A    between atoms: C_8  and  N_21 
REMARK       I    between atoms: C_9  and  N_11 
REMARK    5  A    between atoms: N_11  and  C_12 
REMARK    6  A    between atoms: C_12  and  C_18 
REMARK       I    between atoms: C_18  and  N_20 
REMARK       I    between atoms: N_21  and  C_22 
REMARK    7  A    between atoms: C_22  and  C_24 
REMARK    8  A    between atoms: C_24  and  C_25 
REMARK    9  A    between atoms: C_24  and  N_35 
REMARK   10  A    between atoms: C_25  and  C_26 
REMARK       I    between atoms: N_35  and  C_36 
REMARK   11  A    between atoms: C_36  and  C_38 
REMARK   12  A    between atoms: C_38  and  C_39 
REMARK   13  A    between atoms: C_38  and  N_49 
REMARK   14  A    between atoms: C_39  and  C_40 
REMARK       I    between atoms: N_49  and  C_50 
REMARK   15  A    between atoms: C_50  and  C_52 
ROOT
HETATM    1  C   UNK N   1      25.050  13.067   5.940  0.00  0.00     0.181 C 
ENDROOT
BRANCH   1   2
HETATM    2  C   UNK N   1      26.364  12.820   5.259  0.00  0.00     0.241 C 
HETATM    3  N   UNK N   1      27.094  13.860   4.780  0.00  0.00    -0.346 N 
HETATM    4  H   UNK N   1      26.756  14.771   4.941  0.00  0.00     0.163 HD
HETATM    5  O   UNK N   1      26.759  11.672   5.142  0.00  0.00    -0.271 OA
BRANCH   3   6
HETATM    6  C   UNK N   1      28.334  13.721   4.050  0.00  0.00     0.180 C 
BRANCH   6   7
HETATM    7  C   UNK N   1      28.216  13.536   2.529  0.00  0.00     0.073 C 
BRANCH   7   8
HETATM    8  C   UNK N   1      26.811  13.552   2.012  0.00  0.00    -0.056 A 
HETATM    9  C   UNK N   1      26.157  12.363   1.659  0.00  0.00     0.007 A 
HETATM   10  C   UNK N   1      24.847  12.398   1.175  0.00  0.00     0.001 A 
HETATM   11  C   UNK N   1      24.189  13.623   1.034  0.00  0.00     0.000 A 
HETATM   12  C   UNK N   1      24.840  14.811   1.376  0.00  0.00     0.001 A 
HETATM   13  C   UNK N   1      26.150  14.775   1.866  0.00  0.00     0.007 A 
ENDBRANCH   7   8
ENDBRANCH   6   7
BRANCH   6  14
HETATM   14  C   UNK N   1      29.470  14.504   4.636  0.00  0.00     0.241 C 
HETATM   15  O   UNK N   1      30.617  14.231   4.320  0.00  0.00    -0.271 OA
HETATM   16  N   UNK N   1      29.198  15.514   5.507  0.00  0.00    -0.341 N 
HETATM   17  H   UNK N   1      28.249  15.692   5.696  0.00  0.00     0.163 HD
BRANCH  16  18
HETATM   18  C   UNK N   1      30.168  16.357   6.186  0.00  0.00     0.116 C 
HETATM   19  C   UNK N   1      31.112  15.405   6.944  0.00  0.00     0.060 C 
HETATM   20  C   UNK N   1      32.018  16.112   7.967  0.00  0.00     0.116 C 
HETATM   21  N   UNK N   1      31.791  17.558   8.010  0.00  0.00    -0.421 N 
HETATM   22  C   UNK N   1      30.382  17.814   8.304  0.00  0.00     0.116 C 
HETATM   23  H   UNK N   1      32.502  18.272   7.858  0.00  0.00     0.153 HD
HETATM   24  C   UNK N   1      29.452  17.243   7.221  0.00  0.00     0.060 C 
BRANCH  18  25
HETATM   25  C   UNK N   1      30.946  17.204   5.177  0.00  0.00     0.243 C 
HETATM   26  O   UNK N   1      32.165  17.131   5.113  0.00  0.00    -0.271 OA
HETATM   27  N   UNK N   1      30.300  18.047   4.346  0.00  0.00    -0.368 N 
HETATM   28  H   UNK N   1      29.762  18.688   3.827  0.00  0.00     0.159 HD
HETATM   29  H   UNK N   1      30.877  17.825   3.581  0.00  0.00     0.159 HD
ENDBRANCH  18  25
ENDBRANCH  16  18
ENDBRANCH   6  14
ENDBRANCH   3   6
ENDBRANCH   1   2
BRANCH   1  30
HETATM   30  C   UNK N   1      24.426  11.854   6.660  0.00  0.00     0.075 C 
BRANCH  30  31
HETATM   31  C   UNK N   1      23.274  12.119   7.588  0.00  0.00    -0.028 A 
HETATM   32  C   UNK N   1      21.950  12.358   7.231  0.00  0.00     0.096 A 
HETATM   33  N   UNK N   1      21.197  12.524   8.347  0.00  0.00    -0.365 N 
HETATM   34  C   UNK N   1      22.035  12.374   9.388  0.00  0.00     0.042 A 
HETATM   35  H   UNK N   1      20.232  12.718   8.387  0.00  0.00     0.165 HD
HETATM   36  C   UNK N   1      23.308  12.121   8.960  0.00  0.00    -0.002 A 
HETATM   37  C   UNK N   1      21.708  12.439  10.738  0.00  0.00     0.030 A 
HETATM   38  C   UNK N   1      24.352  11.902   9.858  0.00  0.00     0.014 A 
HETATM   39  C   UNK N   1      24.057  11.961  11.233  0.00  0.00     0.001 A 
HETATM   40  C   UNK N   1      22.740  12.231  11.671  0.00  0.00     0.002 A 
ENDBRANCH  30  31
ENDBRANCH   1  30
BRANCH   1  41
HETATM   41  N   UNK N   1      24.134  13.906   5.185  0.00  0.00    -0.346 N 
HETATM   42  C   UNK N   1      23.718  15.140   5.577  0.00  0.00     0.241 C 
HETATM   43  O   UNK N   1      24.119  15.635   6.617  0.00  0.00    -0.271 OA
HETATM   44  H   UNK N   1      23.789  13.556   4.333  0.00  0.00     0.163 HD
BRANCH  42  45
HETATM   45  C   UNK N   1      22.814  15.956   4.702  0.00  0.00     0.180 C 
BRANCH  45  46
HETATM   46  C   UNK N   1      22.584  17.383   5.214  0.00  0.00     0.074 C 
BRANCH  46  47
HETATM   47  C   UNK N   1      23.041  18.494   4.316  0.00  0.00    -0.038 A 
HETATM   48  C   UNK N   1      22.132  19.290   3.592  0.00  0.00     0.058 A 
HETATM   49  S   UNK N   1      23.055  20.432   2.792  0.00  0.00    -0.101 SA
HETATM   50  C   UNK N   1      24.556  19.990   3.317  0.00  0.00     0.015 A 
HETATM   51  C   UNK N   1      24.399  18.899   4.163  0.00  0.00    -0.012 A 
HETATM   52  C   UNK N   1      25.797  20.552   3.039  0.00  0.00     0.019 A 
HETATM   53  C   UNK N   1      25.517  18.329   4.776  0.00  0.00     0.013 A 
HETATM   54  C   UNK N   1      26.786  18.873   4.510  0.00  0.00     0.001 A 
HETATM   55  C   UNK N   1      26.926  19.978   3.645  0.00  0.00     0.001 A 
ENDBRANCH  46  47
ENDBRANCH  45  46
BRANCH  45  56
HETATM   56  N   UNK N   1      21.574  15.278   4.370  0.00  0.00    -0.347 N 
HETATM   57  C   UNK N   1      21.013  15.300   3.129  0.00  0.00     0.222 C 
HETATM   58  O   UNK N   1      21.590  15.844   2.198  0.00  0.00    -0.273 OA
HETATM   59  H   UNK N   1      21.114  14.775   5.079  0.00  0.00     0.163 HD
BRANCH  57  60
HETATM   60  C   UNK N   1      19.673  14.655   2.874  0.00  0.00     0.081 C 
HETATM   61  C   UNK N   1      19.511  13.388   3.718  0.00  0.00     0.033 C 
HETATM   62  C   UNK N   1      20.424  12.283   3.191  0.00  0.00     0.114 C 
HETATM   63  N   UNK N   1      20.073  11.970   1.808  0.00  0.00    -0.421 N 
HETATM   64  C   UNK N   1      20.334  13.143   0.973  0.00  0.00     0.114 C 
HETATM   65  H   UNK N   1      19.706  11.078   1.477  0.00  0.00     0.153 HD
HETATM   66  C   UNK N   1      19.436  14.312   1.397  0.00  0.00     0.033 C 
ENDBRANCH  57  60
ENDBRANCH  45  56
ENDBRANCH  42  45
ENDBRANCH   1  41
TORSDOF 15
ENDMDL
MODEL 6
REMARK VINA RESULT:      -9.0      2.239      3.981
REMARK  15 active torsions:
REMARK  status: ('A' for Active; 'I' for Inactive)
REMARK    1  A    between atoms: C_4  and  C_7 
REMARK    2  A    between atoms: C_7  and  C_8 
REMARK    3  A    between atoms: C_8  and  C_9 
REMARK    4  A    between atoms: C_8  and  N_21 
REMARK       I    between atoms: C_9  and  N_11 
REMARK    5  A    between atoms: N_11  and  C_12 
REMARK    6  A    between atoms: C_12  and  C_18 
REMARK       I    between atoms: C_18  and  N_20 
REMARK       I    between atoms: N_21  and  C_22 
REMARK    7  A    between atoms: C_22  and  C_24 
REMARK    8  A    between atoms: C_24  and  C_25 
REMARK    9  A    between atoms: C_24  and  N_35 
REMARK   10  A    between atoms: C_25  and  C_26 
REMARK       I    between atoms: N_35  and  C_36 
REMARK   11  A    between atoms: C_36  and  C_38 
REMARK   12  A    between atoms: C_38  and  C_39 
REMARK   13  A    between atoms: C_38  and  N_49 
REMARK   14  A    between atoms: C_39  and  C_40 
REMARK       I    between atoms: N_49  and  C_50 
REMARK   15  A    between atoms: C_50  and  C_52 
ROOT
HETATM    1  C   UNK N   1      25.687  15.258   6.695  0.00  0.00     0.181 C 
ENDROOT
BRANCH   1   2
HETATM    2  C   UNK N   1      26.954  16.034   6.488  0.00  0.00     0.241 C 
HETATM    3  N   UNK N   1      27.420  16.859   7.460  0.00  0.00    -0.346 N 
HETATM    4  H   UNK N   1      26.928  16.886   8.313  0.00  0.00     0.163 HD
HETATM    5  O   UNK N   1      27.552  15.913   5.431  0.00  0.00    -0.271 OA
BRANCH   3   6
HETATM    6  C   UNK N   1      28.590  17.699   7.330  0.00  0.00     0.180 C 
BRANCH   6   7
HETATM    7  C   UNK N   1      28.341  19.213   7.266  0.00  0.00     0.073 C 
BRANCH   7   8
HETATM    8  C   UNK N   1      27.628  19.671   6.030  0.00  0.00    -0.056 A 
HETATM    9  C   UNK N   1      28.084  19.307   4.756  0.00  0.00     0.007 A 
HETATM   10  C   UNK N   1      27.408  19.746   3.615  0.00  0.00     0.001 A 
HETATM   11  C   UNK N   1      26.279  20.559   3.744  0.00  0.00     0.000 A 
HETATM   12  C   UNK N   1      25.826  20.932   5.013  0.00  0.00     0.001 A 
HETATM   13  C   UNK N   1      26.500  20.487   6.155  0.00  0.00     0.007 A 
ENDBRANCH   7   8
ENDBRANCH   6   7
BRANCH   6  14
HETATM   14  C   UNK N   1      29.803  17.155   8.022  0.00  0.00     0.241 C 
HETATM   15  O   UNK N   1      29.769  16.947   9.224  0.00  0.00    -0.271 OA
HETATM   16  N   UNK N   1      30.921  16.893   7.292  0.00  0.00    -0.341 N 
HETATM   17  H   UNK N   1      30.867  17.062   6.323  0.00  0.00     0.163 HD
BRANCH  16  18
HETATM   18  C   UNK N   1      32.187  16.389   7.796  0.00  0.00     0.116 C 
HETATM   19  C   UNK N   1      32.802  17.525   8.634  0.00  0.00     0.060 C 
HETATM   20  C   UNK N   1      34.280  17.299   9.000  0.00  0.00     0.116 C 
HETATM   21  N   UNK N   1      34.800  16.038   8.469  0.00  0.00    -0.421 N 
HETATM   22  C   UNK N   1      34.619  16.017   7.018  0.00  0.00     0.116 C 
HETATM   23  H   UNK N   1      35.222  15.293   9.022  0.00  0.00     0.153 HD
HETATM   24  C   UNK N   1      33.136  16.096   6.619  0.00  0.00     0.060 C 
BRANCH  18  25
HETATM   25  C   UNK N   1      31.967  15.140   8.653  0.00  0.00     0.243 C 
HETATM   26  O   UNK N   1      31.895  14.036   8.134  0.00  0.00    -0.271 OA
HETATM   27  N   UNK N   1      31.845  15.240   9.992  0.00  0.00    -0.368 N 
HETATM   28  H   UNK N   1      31.695  15.405  10.951  0.00  0.00     0.159 HD
HETATM   29  H   UNK N   1      32.381  14.432  10.157  0.00  0.00     0.159 HD
ENDBRANCH  18  25
ENDBRANCH  16  18
ENDBRANCH   6  14
ENDBRANCH   3   6
ENDBRANCH   1   2
BRANCH   1  30
HETATM   30  C   UNK N   1      25.742  14.153   7.771  0.00  0.00     0.075 C 
BRANCH  30  31
HETATM   31  C   UNK N   1      24.434  13.598   8.259  0.00  0.00    -0.028 A 
HETATM   32  C   UNK N   1      23.234  13.544   7.556  0.00  0.00     0.096 A 
HETATM   33  N   UNK N   1      22.283  12.947   8.317  0.00  0.00    -0.365 N 
HETATM   34  C   UNK N   1      22.884  12.618   9.474  0.00  0.00     0.042 A 
HETATM   35  H   UNK N   1      21.342  12.789   8.073  0.00  0.00     0.165 HD
HETATM   36  C   UNK N   1      24.197  12.996   9.469  0.00  0.00    -0.002 A 
HETATM   37  C   UNK N   1      22.306  11.965  10.557  0.00  0.00     0.030 A 
HETATM   38  C   UNK N   1      25.037  12.740  10.552  0.00  0.00     0.014 A 
HETATM   39  C   UNK N   1      24.485  12.081  11.667  0.00  0.00     0.001 A 
HETATM   40  C   UNK N   1      23.124  11.697  11.671  0.00  0.00     0.002 A 
ENDBRANCH  30  31
ENDBRANCH   1  30
BRANCH   1  41
HETATM   41  N   UNK N   1      24.983  14.923   5.467  0.00  0.00    -0.346 N 
HETATM   42  C   UNK N   1      23.926  15.618   4.972  0.00  0.00     0.241 C 
HETATM   43  O   UNK N   1      23.501  16.607   5.546  0.00  0.00    -0.271 OA
HETATM   44  H   UNK N   1      25.294  14.138   4.961  0.00  0.00     0.163 HD
BRANCH  42  45
HETATM   45  C   UNK N   1      23.299  15.229   3.667  0.00  0.00     0.180 C 
BRANCH  45  46
HETATM   46  C   UNK N   1      21.768  15.332   3.663  0.00  0.00     0.074 C 
BRANCH  46  47
HETATM   47  C   UNK N   1      21.162  16.199   2.600  0.00  0.00    -0.038 A 
HETATM   48  C   UNK N   1      20.553  15.656   1.452  0.00  0.00     0.058 A 
HETATM   49  S   UNK N   1      19.960  16.958   0.586  0.00  0.00    -0.101 SA
HETATM   50  C   UNK N   1      20.417  18.187   1.588  0.00  0.00     0.015 A 
HETATM   51  C   UNK N   1      21.074  17.621   2.672  0.00  0.00    -0.012 A 
HETATM   52  C   UNK N   1      20.212  19.557   1.466  0.00  0.00     0.019 A 
HETATM   53  C   UNK N   1      21.553  18.437   3.699  0.00  0.00     0.013 A 
HETATM   54  C   UNK N   1      21.365  19.828   3.602  0.00  0.00     0.001 A 
HETATM   55  C   UNK N   1      20.699  20.385   2.490  0.00  0.00     0.001 A 
ENDBRANCH  46  47
ENDBRANCH  45  46
BRANCH  45  56
HETATM   56  N   UNK N   1      23.771  13.953   3.161  0.00  0.00    -0.347 N 
HETATM   57  C   UNK N   1      24.284  13.781   1.911  0.00  0.00     0.222 C 
HETATM   58  O   UNK N   1      24.444  14.741   1.171  0.00  0.00    -0.273 OA
HETATM   59  H   UNK N   1      23.718  13.170   3.754  0.00  0.00     0.163 HD
BRANCH  57  60
HETATM   60  C   UNK N   1      24.668  12.409   1.414  0.00  0.00     0.081 C 
HETATM   61  C   UNK N   1      23.991  12.109   0.074  0.00  0.00     0.033 C 
HETATM   62  C   UNK N   1      22.493  11.890   0.277  0.00  0.00     0.114 C 
HETATM   63  N   UNK N   1      22.275  10.758   1.174  0.00  0.00    -0.421 N 
HETATM   64  C   UNK N   1      22.819  11.083   2.493  0.00  0.00     0.114 C 
HETATM   65  H   UNK N   1      21.818   9.882   0.922  0.00  0.00     0.153 HD
HETATM   66  C   UNK N   1      24.337  11.288   2.410  0.00  0.00     0.033 C 
ENDBRANCH  57  60
ENDBRANCH  45  56
ENDBRANCH  42  45
ENDBRANCH   1  41
TORSDOF 15
ENDMDL
MODEL 7
REMARK VINA RESULT:      -9.0     12.775     16.658
REMARK  15 active torsions:
REMARK  status: ('A' for Active; 'I' for Inactive)
REMARK    1  A    between atoms: C_4  and  C_7 
REMARK    2  A    between atoms: C_7  and  C_8 
REMARK    3  A    between atoms: C_8  and  C_9 
REMARK    4  A    between atoms: C_8  and  N_21 
REMARK       I    between atoms: C_9  and  N_11 
REMARK    5  A    between atoms: N_11  and  C_12 
REMARK    6  A    between atoms: C_12  and  C_18 
REMARK       I    between atoms: C_18  and  N_20 
REMARK       I    between atoms: N_21  and  C_22 
REMARK    7  A    between atoms: C_22  and  C_24 
REMARK    8  A    between atoms: C_24  and  C_25 
REMARK    9  A    between atoms: C_24  and  N_35 
REMARK   10  A    between atoms: C_25  and  C_26 
REMARK       I    between atoms: N_35  and  C_36 
REMARK   11  A    between atoms: C_36  and  C_38 
REMARK   12  A    between atoms: C_38  and  C_39 
REMARK   13  A    between atoms: C_38  and  N_49 
REMARK   14  A    between atoms: C_39  and  C_40 
REMARK       I    between atoms: N_49  and  C_50 
REMARK   15  A    between atoms: C_50  and  C_52 
ROOT
HETATM    1  C   UNK N   1      27.074  21.581  -7.987  0.00  0.00     0.181 C 
ENDROOT
BRANCH   1   2
HETATM    2  C   UNK N   1      28.447  21.098  -8.351  0.00  0.00     0.241 C 
HETATM    3  N   UNK N   1      29.547  21.739  -7.879  0.00  0.00    -0.346 N 
HETATM    4  H   UNK N   1      29.408  22.489  -7.256  0.00  0.00     0.163 HD
HETATM    5  O   UNK N   1      28.554  20.124  -9.079  0.00  0.00    -0.271 OA
BRANCH   3   6
HETATM    6  C   UNK N   1      30.907  21.394  -8.227  0.00  0.00     0.180 C 
BRANCH   6   7
HETATM    7  C   UNK N   1      31.605  22.305  -9.247  0.00  0.00     0.073 C 
BRANCH   7   8
HETATM    8  C   UNK N   1      31.026  23.684  -9.342  0.00  0.00    -0.056 A 
HETATM    9  C   UNK N   1      31.400  24.687  -8.438  0.00  0.00     0.007 A 
HETATM   10  C   UNK N   1      30.847  25.967  -8.539  0.00  0.00     0.001 A 
HETATM   11  C   UNK N   1      29.910  26.243  -9.538  0.00  0.00     0.000 A 
HETATM   12  C   UNK N   1      29.527  25.243 -10.436  0.00  0.00     0.001 A 
HETATM   13  C   UNK N   1      30.086  23.964 -10.338  0.00  0.00     0.007 A 
ENDBRANCH   7   8
ENDBRANCH   6   7
BRANCH   6  14
HETATM   14  C   UNK N   1      31.681  20.781  -7.098  0.00  0.00     0.241 C 
HETATM   15  O   UNK N   1      31.083  20.239  -6.182  0.00  0.00    -0.271 OA
HETATM   16  N   UNK N   1      33.040  20.834  -7.122  0.00  0.00    -0.341 N 
HETATM   17  H   UNK N   1      33.454  21.266  -7.904  0.00  0.00     0.163 HD
BRANCH  16  18
HETATM   18  C   UNK N   1      33.945  20.318  -6.108  0.00  0.00     0.116 C 
HETATM   19  C   UNK N   1      35.305  20.994  -6.357  0.00  0.00     0.060 C 
HETATM   20  C   UNK N   1      36.471  20.352  -5.584  0.00  0.00     0.116 C 
HETATM   21  N   UNK N   1      36.040  19.218  -4.765  0.00  0.00    -0.421 N 
HETATM   22  C   UNK N   1      35.382  18.231  -5.619  0.00  0.00     0.116 C 
HETATM   23  H   UNK N   1      36.177  19.131  -3.758  0.00  0.00     0.153 HD
HETATM   24  C   UNK N   1      34.125  18.800  -6.298  0.00  0.00     0.060 C 
BRANCH  18  25
HETATM   25  C   UNK N   1      33.426  20.642  -4.706  0.00  0.00     0.243 C 
HETATM   26  O   UNK N   1      33.610  21.746  -4.216  0.00  0.00    -0.271 OA
HETATM   27  N   UNK N   1      32.762  19.713  -3.989  0.00  0.00    -0.368 N 
HETATM   28  H   UNK N   1      32.352  18.960  -3.504  0.00  0.00     0.159 HD
HETATM   29  H   UNK N   1      32.110  20.364  -3.644  0.00  0.00     0.159 HD
ENDBRANCH  18  25
ENDBRANCH  16  18
ENDBRANCH   6  14
ENDBRANCH   3   6
ENDBRANCH   1   2
BRANCH   1  30
HETATM   30  C   UNK N   1      26.032  21.570  -9.125  0.00  0.00     0.075 C 
BRANCH  30  31
HETATM   31  C   UNK N   1      26.313  22.427 -10.327  0.00  0.00    -0.028 A 
HETATM   32  C   UNK N   1      26.834  22.011 -11.548  0.00  0.00     0.096 A 
HETATM   33  N   UNK N   1      26.918  23.067 -12.395  0.00  0.00    -0.365 N 
HETATM   34  C   UNK N   1      26.438  24.126 -11.719  0.00  0.00     0.042 A 
HETATM   35  H   UNK N   1      27.261  23.060 -13.318  0.00  0.00     0.165 HD
HETATM   36  C   UNK N   1      26.056  23.769 -10.457  0.00  0.00    -0.002 A 
HETATM   37  C   UNK N   1      26.308  25.427 -12.192  0.00  0.00     0.030 A 
HETATM   38  C   UNK N   1      25.503  24.693  -9.571  0.00  0.00     0.014 A 
HETATM   39  C   UNK N   1      25.356  26.020 -10.016  0.00  0.00     0.001 A 
HETATM   40  C   UNK N   1      25.760  26.387 -11.320  0.00  0.00     0.002 A 
ENDBRANCH  30  31
ENDBRANCH   1  30
BRANCH   1  41
HETATM   41  N   UNK N   1      27.061  22.747  -7.118  0.00  0.00    -0.346 N 
HETATM   42  C   UNK N   1      25.983  23.160  -6.399  0.00  0.00     0.241 C 
HETATM   43  O   UNK N   1      24.932  22.544  -6.437  0.00  0.00    -0.271 OA
HETATM   44  H   UNK N   1      27.889  23.273  -7.046  0.00  0.00     0.163 HD
BRANCH  42  45
HETATM   45  C   UNK N   1      26.082  24.344  -5.485  0.00  0.00     0.180 C 
BRANCH  45  46
HETATM   46  C   UNK N   1      25.568  25.648  -6.108  0.00  0.00     0.074 C 
BRANCH  46  47
HETATM   47  C   UNK N   1      25.961  26.918  -5.413  0.00  0.00    -0.038 A 
HETATM   48  C   UNK N   1      25.475  27.249  -4.132  0.00  0.00     0.058 A 
HETATM   49  S   UNK N   1      26.214  28.691  -3.718  0.00  0.00    -0.101 SA
HETATM   50  C   UNK N   1      27.136  28.926  -5.066  0.00  0.00     0.015 A 
HETATM   51  C   UNK N   1      26.899  27.861  -5.925  0.00  0.00    -0.012 A 
HETATM   52  C   UNK N   1      28.025  29.951  -5.368  0.00  0.00     0.019 A 
HETATM   53  C   UNK N   1      27.574  27.790  -7.146  0.00  0.00     0.013 A 
HETATM   54  C   UNK N   1      28.476  28.816  -7.482  0.00  0.00     0.001 A 
HETATM   55  C   UNK N   1      28.700  29.892  -6.598  0.00  0.00     0.001 A 
ENDBRANCH  46  47
ENDBRANCH  45  46
BRANCH  45  56
HETATM   56  N   UNK N   1      27.393  24.495  -4.882  0.00  0.00    -0.347 N 
HETATM   57  C   UNK N   1      27.655  24.231  -3.572  0.00  0.00     0.222 C 
HETATM   58  O   UNK N   1      26.785  23.767  -2.849  0.00  0.00    -0.273 OA
HETATM   59  H   UNK N   1      28.134  24.805  -5.451  0.00  0.00     0.163 HD
BRANCH  57  60
HETATM   60  C   UNK N   1      29.019  24.502  -2.985  0.00  0.00     0.081 C 
HETATM   61  C   UNK N   1      29.975  25.033  -4.056  0.00  0.00     0.033 C 
HETATM   62  C   UNK N   1      30.341  23.920  -5.035  0.00  0.00     0.114 C 
HETATM   63  N   UNK N   1      31.001  22.829  -4.320  0.00  0.00    -0.421 N 
HETATM   64  C   UNK N   1      30.055  22.240  -3.372  0.00  0.00     0.114 C 
HETATM   65  H   UNK N   1      31.965  22.528  -4.459  0.00  0.00     0.153 HD
HETATM   66  C   UNK N   1      29.645  23.271  -2.314  0.00  0.00     0.033 C 
ENDBRANCH  57  60
ENDBRANCH  45  56
ENDBRANCH  42  45
ENDBRANCH   1  41
TORSDOF 15
ENDMDL
MODEL 8
REMARK VINA RESULT:      -8.9      1.726      2.802
REMARK  15 active torsions:
REMARK  status: ('A' for Active; 'I' for Inactive)
REMARK    1  A    between atoms: C_4  and  C_7 
REMARK    2  A    between atoms: C_7  and  C_8 
REMARK    3  A    between atoms: C_8  and  C_9 
REMARK    4  A    between atoms: C_8  and  N_21 
REMARK       I    between atoms: C_9  and  N_11 
REMARK    5  A    between atoms: N_11  and  C_12 
REMARK    6  A    between atoms: C_12  and  C_18 
REMARK       I    between atoms: C_18  and  N_20 
REMARK       I    between atoms: N_21  and  C_22 
REMARK    7  A    between atoms: C_22  and  C_24 
REMARK    8  A    between atoms: C_24  and  C_25 
REMARK    9  A    between atoms: C_24  and  N_35 
REMARK   10  A    between atoms: C_25  and  C_26 
REMARK       I    between atoms: N_35  and  C_36 
REMARK   11  A    between atoms: C_36  and  C_38 
REMARK   12  A    between atoms: C_38  and  C_39 
REMARK   13  A    between atoms: C_38  and  N_49 
REMARK   14  A    between atoms: C_39  and  C_40 
REMARK       I    between atoms: N_49  and  C_50 
REMARK   15  A    between atoms: C_50  and  C_52 
ROOT
HETATM    1  C   UNK N   1      25.517  14.751   6.154  0.00  0.00     0.181 C 
ENDROOT
BRANCH   1   2
HETATM    2  C   UNK N   1      26.700  15.625   5.858  0.00  0.00     0.241 C 
HETATM    3  N   UNK N   1      27.493  16.070   6.866  0.00  0.00    -0.346 N 
HETATM    4  H   UNK N   1      27.293  15.758   7.778  0.00  0.00     0.163 HD
HETATM    5  O   UNK N   1      26.932  15.928   4.699  0.00  0.00    -0.271 OA
BRANCH   3   6
HETATM    6  C   UNK N   1      28.612  16.970   6.691  0.00  0.00     0.180 C 
BRANCH   6   7
HETATM    7  C   UNK N   1      28.422  18.405   7.204  0.00  0.00     0.073 C 
BRANCH   7   8
HETATM    8  C   UNK N   1      27.779  19.333   6.220  0.00  0.00    -0.056 A 
HETATM    9  C   UNK N   1      27.022  20.431   6.651  0.00  0.00     0.007 A 
HETATM   10  C   UNK N   1      26.427  21.284   5.718  0.00  0.00     0.001 A 
HETATM   11  C   UNK N   1      26.578  21.037   4.351  0.00  0.00     0.000 A 
HETATM   12  C   UNK N   1      27.324  19.937   3.917  0.00  0.00     0.001 A 
HETATM   13  C   UNK N   1      27.925  19.087   4.851  0.00  0.00     0.007 A 
ENDBRANCH   7   8
ENDBRANCH   6   7
BRANCH   6  14
HETATM   14  C   UNK N   1      29.947  16.296   6.786  0.00  0.00     0.241 C 
HETATM   15  O   UNK N   1      30.167  15.295   6.123  0.00  0.00    -0.271 OA
HETATM   16  N   UNK N   1      30.896  16.820   7.608  0.00  0.00    -0.341 N 
HETATM   17  H   UNK N   1      30.657  17.643   8.094  0.00  0.00     0.163 HD
BRANCH  16  18
HETATM   18  C   UNK N   1      32.229  16.290   7.842  0.00  0.00     0.116 C 
HETATM   19  C   UNK N   1      33.021  17.406   8.547  0.00  0.00     0.060 C 
HETATM   20  C   UNK N   1      34.538  17.153   8.604  0.00  0.00     0.116 C 
HETATM   21  N   UNK N   1      34.918  15.890   7.968  0.00  0.00    -0.421 N 
HETATM   22  C   UNK N   1      34.446  15.889   6.584  0.00  0.00     0.116 C 
HETATM   23  H   UNK N   1      35.429  15.132   8.418  0.00  0.00     0.153 HD
HETATM   24  C   UNK N   1      32.915  15.997   6.494  0.00  0.00     0.060 C 
BRANCH  18  25
HETATM   25  C   UNK N   1      32.165  15.035   8.714  0.00  0.00     0.243 C 
HETATM   26  O   UNK N   1      32.321  13.927   8.222  0.00  0.00    -0.271 OA
HETATM   27  N   UNK N   1      31.931  15.132  10.039  0.00  0.00    -0.368 N 
HETATM   28  H   UNK N   1      31.685  15.282  10.980  0.00  0.00     0.159 HD
HETATM   29  H   UNK N   1      32.584  14.431  10.262  0.00  0.00     0.159 HD
ENDBRANCH  18  25
ENDBRANCH  16  18
ENDBRANCH   6  14
ENDBRANCH   3   6
ENDBRANCH   1   2
BRANCH   1  30
HETATM   30  C   UNK N   1      25.516  14.063   7.535  0.00  0.00     0.075 C 
BRANCH  30  31
HETATM   31  C   UNK N   1      24.183  13.817   8.183  0.00  0.00    -0.028 A 
HETATM   32  C   UNK N   1      22.931  14.143   7.672  0.00  0.00     0.096 A 
HETATM   33  N   UNK N   1      21.964  13.737   8.532  0.00  0.00    -0.365 N 
HETATM   34  C   UNK N   1      22.601  13.150   9.559  0.00  0.00     0.042 A 
HETATM   35  H   UNK N   1      20.992  13.851   8.426  0.00  0.00     0.165 HD
HETATM   36  C   UNK N   1      23.955  13.176   9.376  0.00  0.00    -0.002 A 
HETATM   37  C   UNK N   1      22.018  12.561  10.676  0.00  0.00     0.030 A 
HETATM   38  C   UNK N   1      24.831  12.604  10.298  0.00  0.00     0.014 A 
HETATM   39  C   UNK N   1      24.274  12.000  11.441  0.00  0.00     0.001 A 
HETATM   40  C   UNK N   1      22.874  11.981  11.631  0.00  0.00     0.002 A 
ENDBRANCH  30  31
ENDBRANCH   1  30
BRANCH   1  41
HETATM   41  N   UNK N   1      25.079  13.936   5.032  0.00  0.00    -0.346 N 
HETATM   42  C   UNK N   1      24.064  14.266   4.190  0.00  0.00     0.241 C 
HETATM   43  O   UNK N   1      23.450  15.311   4.328  0.00  0.00    -0.271 OA
HETATM   44  H   UNK N   1      25.550  13.087   4.872  0.00  0.00     0.163 HD
BRANCH  42  45
HETATM   45  C   UNK N   1      23.721  13.387   3.024  0.00  0.00     0.180 C 
BRANCH  45  46
HETATM   46  C   UNK N   1      24.736  13.461   1.877  0.00  0.00     0.074 C 
BRANCH  46  47
HETATM   47  C   UNK N   1      25.484  12.199   1.568  0.00  0.00    -0.038 A 
HETATM   48  C   UNK N   1      26.720  11.896   2.174  0.00  0.00     0.058 A 
HETATM   49  S   UNK N   1      27.154  10.385   1.603  0.00  0.00    -0.101 SA
HETATM   50  C   UNK N   1      25.856  10.073   0.633  0.00  0.00     0.015 A 
HETATM   51  C   UNK N   1      25.003  11.166   0.711  0.00  0.00    -0.012 A 
HETATM   52  C   UNK N   1      25.571   8.951  -0.137  0.00  0.00     0.019 A 
HETATM   53  C   UNK N   1      23.800  11.161   0.001  0.00  0.00     0.013 A 
HETATM   54  C   UNK N   1      23.487  10.042  -0.792  0.00  0.00     0.001 A 
HETATM   55  C   UNK N   1      24.368   8.944  -0.862  0.00  0.00     0.001 A 
ENDBRANCH  46  47
ENDBRANCH  45  46
BRANCH  45  56
HETATM   56  N   UNK N   1      22.353  13.548   2.568  0.00  0.00    -0.347 N 
HETATM   57  C   UNK N   1      22.007  14.260   1.460  0.00  0.00     0.222 C 
HETATM   58  O   UNK N   1      22.870  14.739   0.738  0.00  0.00    -0.273 OA
HETATM   59  H   UNK N   1      21.636  13.120   3.089  0.00  0.00     0.163 HD
BRANCH  57  60
HETATM   60  C   UNK N   1      20.558  14.469   1.095  0.00  0.00     0.081 C 
HETATM   61  C   UNK N   1      20.306  15.923   0.686  0.00  0.00     0.033 C 
HETATM   62  C   UNK N   1      20.390  16.837   1.906  0.00  0.00     0.114 C 
HETATM   63  N   UNK N   1      19.381  16.447   2.887  0.00  0.00    -0.421 N 
HETATM   64  C   UNK N   1      19.681  15.098   3.370  0.00  0.00     0.114 C 
HETATM   65  H   UNK N   1      18.593  17.021   3.188  0.00  0.00     0.153 HD
HETATM   66  C   UNK N   1      19.588  14.086   2.221  0.00  0.00     0.033 C 
ENDBRANCH  57  60
ENDBRANCH  45  56
ENDBRANCH  42  45
ENDBRANCH   1  41
TORSDOF 15
ENDMDL
MODEL 9
REMARK VINA RESULT:      -8.9      3.172      8.769
REMARK  15 active torsions:
REMARK  status: ('A' for Active; 'I' for Inactive)
REMARK    1  A    between atoms: C_4  and  C_7 
REMARK    2  A    between atoms: C_7  and  C_8 
REMARK    3  A    between atoms: C_8  and  C_9 
REMARK    4  A    between atoms: C_8  and  N_21 
REMARK       I    between atoms: C_9  and  N_11 
REMARK    5  A    between atoms: N_11  and  C_12 
REMARK    6  A    between atoms: C_12  and  C_18 
REMARK       I    between atoms: C_18  and  N_20 
REMARK       I    between atoms: N_21  and  C_22 
REMARK    7  A    between atoms: C_22  and  C_24 
REMARK    8  A    between atoms: C_24  and  C_25 
REMARK    9  A    between atoms: C_24  and  N_35 
REMARK   10  A    between atoms: C_25  and  C_26 
REMARK       I    between atoms: N_35  and  C_36 
REMARK   11  A    between atoms: C_36  and  C_38 
REMARK   12  A    between atoms: C_38  and  C_39 
REMARK   13  A    between atoms: C_38  and  N_49 
REMARK   14  A    between atoms: C_39  and  C_40 
REMARK       I    between atoms: N_49  and  C_50 
REMARK   15  A    between atoms: C_50  and  C_52 
ROOT
HETATM    1  C   UNK N   1      28.515  15.790   4.077  0.00  0.00     0.181 C 
ENDROOT
BRANCH   1   2
HETATM    2  C   UNK N   1      27.079  15.542   3.720  0.00  0.00     0.241 C 
HETATM    3  N   UNK N   1      26.141  15.423   4.695  0.00  0.00    -0.346 N 
HETATM    4  H   UNK N   1      26.429  15.555   5.627  0.00  0.00     0.163 HD
HETATM    5  O   UNK N   1      26.773  15.447   2.542  0.00  0.00    -0.271 OA
BRANCH   3   6
HETATM    6  C   UNK N   1      24.748  15.116   4.457  0.00  0.00     0.180 C 
BRANCH   6   7
HETATM    7  C   UNK N   1      24.275  13.715   4.874  0.00  0.00     0.073 C 
BRANCH   7   8
HETATM    8  C   UNK N   1      23.996  13.568   6.338  0.00  0.00    -0.056 A 
HETATM    9  C   UNK N   1      25.011  13.207   7.234  0.00  0.00     0.007 A 
HETATM   10  C   UNK N   1      24.731  13.071   8.596  0.00  0.00     0.001 A 
HETATM   11  C   UNK N   1      23.433  13.286   9.066  0.00  0.00     0.000 A 
HETATM   12  C   UNK N   1      22.415  13.638   8.174  0.00  0.00     0.001 A 
HETATM   13  C   UNK N   1      22.697  13.780   6.811  0.00  0.00     0.007 A 
ENDBRANCH   7   8
ENDBRANCH   6   7
BRANCH   6  14
HETATM   14  C   UNK N   1      23.838  16.300   4.593  0.00  0.00     0.241 C 
HETATM   15  O   UNK N   1      24.119  17.189   5.381  0.00  0.00    -0.271 OA
HETATM   16  N   UNK N   1      22.716  16.364   3.826  0.00  0.00    -0.341 N 
HETATM   17  H   UNK N   1      22.566  15.623   3.196  0.00  0.00     0.163 HD
BRANCH  16  18
HETATM   18  C   UNK N   1      21.715  17.418   3.843  0.00  0.00     0.116 C 
HETATM   19  C   UNK N   1      20.758  17.124   2.673  0.00  0.00     0.060 C 
HETATM   20  C   UNK N   1      19.811  18.289   2.335  0.00  0.00     0.116 C 
HETATM   21  N   UNK N   1      20.021  19.449   3.203  0.00  0.00    -0.421 N 
HETATM   22  C   UNK N   1      21.416  19.874   3.109  0.00  0.00     0.116 C 
HETATM   23  H   UNK N   1      19.307  19.890   3.782  0.00  0.00     0.153 HD
HETATM   24  C   UNK N   1      22.388  18.778   3.578  0.00  0.00     0.060 C 
BRANCH  18  25
HETATM   25  C   UNK N   1      20.961  17.424   5.174  0.00  0.00     0.243 C 
HETATM   26  O   UNK N   1      19.962  16.736   5.325  0.00  0.00    -0.271 OA
HETATM   27  N   UNK N   1      21.383  18.193   6.198  0.00  0.00    -0.368 N 
HETATM   28  H   UNK N   1      21.713  18.832   6.869  0.00  0.00     0.159 HD
HETATM   29  H   UNK N   1      21.194  17.499   6.870  0.00  0.00     0.159 HD
ENDBRANCH  18  25
ENDBRANCH  16  18
ENDBRANCH   6  14
ENDBRANCH   3   6
ENDBRANCH   1   2
BRANCH   1  30
HETATM   30  C   UNK N   1      28.920  17.268   4.254  0.00  0.00     0.075 C 
BRANCH  30  31
HETATM   31  C   UNK N   1      28.554  17.934   5.551  0.00  0.00    -0.028 A 
HETATM   32  C   UNK N   1      27.494  18.806   5.774  0.00  0.00     0.096 A 
HETATM   33  N   UNK N   1      27.470  19.176   7.079  0.00  0.00    -0.365 N 
HETATM   34  C   UNK N   1      28.492  18.530   7.668  0.00  0.00     0.042 A 
HETATM   35  H   UNK N   1      26.835  19.794   7.508  0.00  0.00     0.165 HD
HETATM   36  C   UNK N   1      29.170  17.760   6.765  0.00  0.00    -0.002 A 
HETATM   37  C   UNK N   1      28.849  18.583   9.010  0.00  0.00     0.030 A 
HETATM   38  C   UNK N   1      30.258  16.974   7.144  0.00  0.00     0.014 A 
HETATM   39  C   UNK N   1      30.648  17.004   8.497  0.00  0.00     0.001 A 
HETATM   40  C   UNK N   1      29.948  17.808   9.426  0.00  0.00     0.002 A 
ENDBRANCH  30  31
ENDBRANCH   1  30
BRANCH   1  41
HETATM   41  N   UNK N   1      29.461  14.947   3.365  0.00  0.00    -0.346 N 
HETATM   42  C   UNK N   1      29.958  13.774   3.841  0.00  0.00     0.241 C 
HETATM   43  O   UNK N   1      29.613  13.343   4.929  0.00  0.00    -0.271 OA
HETATM   44  H   UNK N   1      29.764  15.246   2.478  0.00  0.00     0.163 HD
BRANCH  42  45
HETATM   45  C   UNK N   1      30.889  12.944   3.009  0.00  0.00     0.180 C 
BRANCH  45  46
HETATM   46  C   UNK N   1      32.308  13.519   2.913  0.00  0.00     0.074 C 
BRANCH  46  47
HETATM   47  C   UNK N   1      32.977  13.862   4.211  0.00  0.00    -0.038 A 
HETATM   48  C   UNK N   1      33.573  12.880   5.026  0.00  0.00     0.058 A 
HETATM   49  S   UNK N   1      34.249  13.701   6.316  0.00  0.00    -0.101 SA
HETATM   50  C   UNK N   1      33.846  15.246   5.902  0.00  0.00     0.015 A 
HETATM   51  C   UNK N   1      33.143  15.189   4.706  0.00  0.00    -0.012 A 
HETATM   52  C   UNK N   1      34.129  16.443   6.550  0.00  0.00     0.019 A 
HETATM   53  C   UNK N   1      32.695  16.368   4.106  0.00  0.00     0.013 A 
HETATM   54  C   UNK N   1      32.961  17.594   4.741  0.00  0.00     0.001 A 
HETATM   55  C   UNK N   1      33.673  17.632   5.958  0.00  0.00     0.001 A 
ENDBRANCH  46  47
ENDBRANCH  45  46
BRANCH  45  56
HETATM   56  N   UNK N   1      30.341  12.594   1.712  0.00  0.00    -0.347 N 
HETATM   57  C   UNK N   1      29.749  11.398   1.442  0.00  0.00     0.222 C 
HETATM   58  O   UNK N   1      29.581  10.576   2.332  0.00  0.00    -0.273 OA
HETATM   59  H   UNK N   1      30.401  13.257   0.988  0.00  0.00     0.163 HD
BRANCH  57  60
HETATM   60  C   UNK N   1      29.287  11.060   0.046  0.00  0.00     0.081 C 
HETATM   61  C   UNK N   1      29.436   9.561  -0.227  0.00  0.00     0.033 C 
HETATM   62  C   UNK N   1      30.912   9.192  -0.358  0.00  0.00     0.114 C 
HETATM   63  N   UNK N   1      31.510   9.930  -1.467  0.00  0.00    -0.421 N 
HETATM   64  C   UNK N   1      31.475  11.361  -1.162  0.00  0.00     0.114 C 
HETATM   65  H   UNK N   1      31.890   9.516  -2.318  0.00  0.00     0.153 HD
HETATM   66  C   UNK N   1      30.026  11.848  -1.045  0.00  0.00     0.033 C 
ENDBRANCH  57  60
ENDBRANCH  45  56
ENDBRANCH  42  45
ENDBRANCH   1  41
TORSDOF 15
ENDMDL
