REMARK  8 active torsions:
REMARK  status: ('A' for Active; 'I' for Inactive)
REMARK    1  A    between atoms: C_3  and  O_18 
REMARK    2  A    between atoms: C_6  and  C_7 
REMARK    3  A    between atoms: C_7  and  N_8 
REMARK    4  A    between atoms: N_8  and  C_9 
REMARK    5  A    between atoms: C_9  and  C_10 
REMARK    6  A    between atoms: C_10  and  C_11 
REMARK    7  A    between atoms: O_18  and  C_19 
REMARK    8  A    between atoms: C_22  and  C_26 
REMARK       I    between atoms: C_26  and  N_28 
ROOT
HETATM    1  C   UNK N   1      -4.084  -4.550   0.140  0.00  0.00     0.012 A 
HETATM    2  C   UNK N   1      -5.342  -3.972   0.294  0.00  0.00     0.041 A 
HETATM    3  C   UNK N   1      -5.546  -2.607   0.020  0.00  0.00     0.116 A 
HETATM    4  C   UNK N   1      -4.455  -1.823  -0.382  0.00  0.00     0.150 A 
HETATM    5  C   UNK N   1      -3.191  -2.405  -0.536  0.00  0.00     0.054 A 
HETATM    6  C   UNK N   1      -3.008  -3.770  -0.280  0.00  0.00    -0.038 A 
HETATM    7  F   UNK N   1      -4.623  -0.505  -0.651  0.00  0.00    -0.203 F 
ENDROOT
BRANCH   3   8
HETATM    8  O   UNK N   1      -6.777  -2.037   0.147  0.00  0.00    -0.291 OA
BRANCH   8   9
HETATM    9  C   UNK N   1      -7.966  -2.699   0.086  0.00  0.00     0.148 A 
HETATM   10  C   UNK N   1      -8.063  -3.968  -0.507  0.00  0.00     0.057 A 
HETATM   11  C   UNK N   1      -9.289  -4.618  -0.561  0.00  0.00     0.022 A 
HETATM   12  C   UNK N   1     -10.424  -4.007  -0.029  0.00  0.00     0.047 A 
HETATM   13  C   UNK N   1     -10.300  -2.732   0.543  0.00  0.00     0.107 A 
HETATM   14  N   UNK N   1      -9.088  -2.109   0.582  0.00  0.00    -0.346 N 
ATOM     15  HN  UNK N   1      -9.021  -1.178   0.993  1.00  0.00     0.167 HD
BRANCH  12  16
HETATM   16  C   UNK N   1     -11.726  -4.704  -0.069  0.00  0.00     0.250 C 
HETATM   17  O   UNK N   1     -11.812  -5.812  -0.578  0.00  0.00    -0.268 OA
HETATM   18  N   UNK N   1     -12.824  -4.131   0.460  0.00  0.00    -0.366 N 
HETATM   19  H   UNK N   1     -12.863  -3.226   0.847  0.00  0.00     0.159 HD
HETATM   20  H   UNK N   1     -13.655  -4.659   0.460  0.00  0.00     0.159 HD
ENDBRANCH  12  16
ENDBRANCH   8   9
ENDBRANCH   3   8
BRANCH   6  21
HETATM   21  C   UNK N   1      -1.679  -4.409  -0.476  0.00  0.00     0.152 C 
BRANCH  21  22
HETATM   22  N   UNK N   1      -0.735  -3.904   0.502  0.00  0.00    -0.417 N 
HETATM   23  H   UNK N   1      -0.769  -4.061   1.510  0.00  0.00     0.153 HD
BRANCH  22  24
HETATM   24  C   UNK N   1       0.266  -3.132  -0.213  0.00  0.00     0.114 C 
BRANCH  24  25
HETATM   25  C   UNK N   1       1.398  -2.803   0.748  0.00  0.00     0.024 C 
BRANCH  25  26
HETATM   26  C   UNK N   1       2.532  -3.828   0.722  0.00  0.00    -0.009 C 
HETATM   27  C   UNK N   1       3.449  -3.628  -0.481  0.00  0.00     0.031 C 
HETATM   28  C   UNK N   1       4.524  -4.714  -0.440  0.00  0.00     0.168 C 
HETATM   29  O   UNK N   1       3.913  -5.978  -0.538  0.00  0.00    -0.391 OA
HETATM   30  C   UNK N   1       3.258  -6.206   0.687  0.00  0.00     0.168 C 
HETATM   31  C   UNK N   1       2.047  -5.280   0.809  0.00  0.00     0.031 C 
ENDBRANCH  25  26
ENDBRANCH  24  25
ENDBRANCH  22  24
ENDBRANCH  21  22
ENDBRANCH   6  21
TORSDOF 8
