REMARK  15 active torsions:
REMARK  status: ('A' for Active; 'I' for Inactive)
REMARK    1  A    between atoms: C_4  and  C_3 
REMARK    2  A    between atoms: C_5  and  C_3 
REMARK    3  A    between atoms: C_23  and  C_4 
REMARK    4  A    between atoms: C_31  and  C_5 
REMARK    5  A    between atoms: C_18  and  C_16 
REMARK    6  A    between atoms: C_19  and  C_17 
REMARK    7  A    between atoms: N_38  and  C_18 
REMARK    8  A    between atoms: N_38  and  C_19 
REMARK    9  A    between atoms: C_30  and  C_22 
REMARK   10  A    between atoms: O_44  and  C_22 
REMARK   11  A    between atoms: N_38  and  C_25 
REMARK   12  A    between atoms: C_29  and  O_40 
REMARK   13  A    between atoms: C_35  and  C_30 
REMARK   14  A    between atoms: O_44  and  C_31 
REMARK   15  A    between atoms: C_35  and  O_43 
ROOT
HETATM    1  C   UNK N   1       6.217   8.681  -1.854  0.00  0.00     0.025 C 
HETATM    2  C   UNK N   1       2.659   5.958  -2.023  0.00  0.00     0.019 C 
HETATM    3  C   UNK N   1       4.762  10.210   0.552  0.00  0.00     0.036 C 
HETATM    4  C   UNK N   1       3.635   9.242   0.814  0.00  0.00     0.010 C 
HETATM    5  C   UNK N   1       8.567   8.150   0.064  0.00  0.00     0.052 C 
HETATM    6  C   UNK N   1       0.997   7.918  -0.403  0.00  0.00     0.009 C 
HETATM    7  C   UNK N   1       7.434   7.458  -0.148  0.00  0.00    -0.009 C 
HETATM    8  C   UNK N   1       0.132   6.702  -0.721  0.00  0.00     0.047 C 
HETATM    9  C   UNK N   1       7.176  10.208   0.586  0.00  0.00     0.058 C 
HETATM   10  C   UNK N   1       3.509   5.166   0.252  0.00  0.00     0.045 C 
HETATM   11  C   UNK N   1       6.057   9.480   0.425  0.00  0.00    -0.064 C 
HETATM   12  C   UNK N   1       8.487   9.610   0.274  0.00  0.00     0.171 C 
HETATM   13  C   UNK N   1       3.556   8.158  -0.266  0.00  0.00    -0.002 C 
HETATM   14  C   UNK N   1       2.311   7.323   0.068  0.00  0.00     0.002 C 
HETATM   15  C   UNK N   1       4.724   6.082   0.679  0.00  0.00     0.124 C 
HETATM   16  C   UNK N   1       4.855   7.272  -0.325  0.00  0.00     0.035 C 
HETATM   17  C   UNK N   1       6.130   8.192  -0.402  0.00  0.00     0.004 C 
HETATM   18  C   UNK N   1       2.374   5.922  -0.506  0.00  0.00     0.001 C 
HETATM   19  C   UNK N   1       0.922   5.460  -0.275  0.00  0.00     0.128 C 
HETATM   20  O   UNK N   1       9.492  10.301   0.247  0.00  0.00    -0.289 OA
ENDROOT
BRANCH  19  21
HETATM   21  C   UNK N   1       0.449   4.237  -1.039  0.00  0.00     0.185 C 
HETATM   22  O   UNK N   1       1.236   3.545  -1.666  0.00  0.00    -0.292 OA
BRANCH  21  23
HETATM   23  C   UNK N   1      -1.012   3.904  -1.095  0.00  0.00     0.260 C 
BRANCH  23  24
HETATM   24  O   UNK N   1      -1.516   3.651   0.160  0.00  0.00    -0.314 OA
BRANCH  24  25
HETATM   25  C   UNK N   1      -2.114   4.603   0.914  0.00  0.00     0.259 C 
HETATM   26  O   UNK N   1      -2.108   5.779   0.561  0.00  0.00    -0.265 OA
BRANCH  25  27
HETATM   27  C   UNK N   1      -2.850   4.227   2.155  0.00  0.00     0.111 C 
BRANCH  27  28
HETATM   28  C   UNK N   1      -4.011   3.263   1.865  0.00  0.00     0.014 C 
BRANCH  28  29
HETATM   29  C   UNK N   1      -4.681   3.479   0.499  0.00  0.00     0.039 C 
BRANCH  29  30
HETATM   30  C   UNK N   1      -5.470   4.747   0.416  0.00  0.00    -0.058 A 
HETATM   31  C   UNK N   1      -4.874   5.979   0.697  0.00  0.00     0.009 A 
HETATM   32  C   UNK N   1      -5.607   7.156   0.631  0.00  0.00     0.030 A 
HETATM   33  C   UNK N   1      -6.963   7.125   0.285  0.00  0.00     0.030 A 
HETATM   34  C   UNK N   1      -7.555   5.886  -0.025  0.00  0.00     0.030 A 
HETATM   35  C   UNK N   1      -6.810   4.705   0.032  0.00  0.00     0.009 A 
BRANCH  33  36
HETATM   36  N   UNK N   1      -7.731   8.334   0.306  0.00  0.00    -0.379 N 
BRANCH  36  37
HETATM   37  C   UNK N   1      -9.180   8.299   0.338  0.00  0.00     0.138 C 
BRANCH  37  38
HETATM   38  C   UNK N   1      -9.789   7.635  -0.881  0.00  0.00     0.134 C 
HETATM   39 Cl   UNK N   1     -11.052   6.515  -0.310  0.00  0.00    -0.129 Cl
ENDBRANCH  37  38
ENDBRANCH  36  37
BRANCH  36  40
HETATM   40  C   UNK N   1      -7.077   9.577   0.651  0.00  0.00     0.138 C 
BRANCH  40  41
HETATM   41  C   UNK N   1      -7.070  10.544  -0.515  0.00  0.00     0.134 C 
HETATM   42 Cl   UNK N   1      -5.911  11.846  -0.155  0.00  0.00    -0.129 Cl
ENDBRANCH  40  41
ENDBRANCH  36  40
ENDBRANCH  33  36
ENDBRANCH  29  30
ENDBRANCH  28  29
ENDBRANCH  27  28
ENDBRANCH  25  27
ENDBRANCH  24  25
ENDBRANCH  23  24
ENDBRANCH  21  23
ENDBRANCH  19  21
BRANCH  19  43
HETATM   43  O   UNK N   1       0.703   5.252   1.093  0.00  0.00    -0.381 OA
HETATM   44  H   UNK N   1       0.503   5.312   2.040  0.00  0.00     0.211 HD
ENDBRANCH  19  43
BRANCH  15  45
HETATM   45  O   UNK N   1       5.868   5.283   0.671  0.00  0.00    -0.395 OA
HETATM   46  H   UNK N   1       5.784   4.316   0.666  0.00  0.00     0.210 HD
ENDBRANCH  15  45
TORSDOF 15
