REMARK  5 active torsions:
REMARK  status: ('A' for Active; 'I' for Inactive)
REMARK    1  A    between atoms: S_2  and  C_3 
REMARK    2  A    between atoms: C_3  and  C_4 
REMARK    3  A    between atoms: C_4  and  C_5 
REMARK    4  A    between atoms: C_5  and  C_6 
REMARK    5  A    between atoms: C_6  and  N_7 
ROOT
HETATM    1  N   UNK N   1       7.404  -1.941  -0.004  0.00  0.00    -0.390 N 
ATOM      2  HN  UNK N   1       7.681  -2.923  -0.013  1.00  0.00     0.159 HD
HETATM    3  C   UNK N   1       8.265  -1.029  -0.001  0.00  0.00     0.165 C 
HETATM    4  S   UNK N   1       9.212   0.015   0.002  0.00  0.00    -0.075 SA
ENDROOT
BRANCH   1   5
HETATM    5  C   UNK N   1       6.034  -1.573   0.006  0.00  0.00     0.119 C 
BRANCH   5   6
HETATM    6  C   UNK N   1       5.096  -2.746   0.001  0.00  0.00     0.020 C 
BRANCH   6   7
HETATM    7  C   UNK N   1       3.779  -2.034  -0.005  0.00  0.00     0.014 C 
BRANCH   7   8
HETATM    8  C   UNK N   1       2.566  -2.910   0.000  0.00  0.00     0.108 C 
BRANCH   8   9
HETATM    9  S   UNK N   1       1.195  -1.722   0.001  0.00  0.00     0.010 S 
HETATM   10  C   UNK N   1      -0.531  -2.281  -0.000  0.00  0.00     0.127 C 
HETATM   11  O   UNK N   1       1.560  -0.037   0.000  0.00  0.00    -0.258 OA
ENDBRANCH   8   9
ENDBRANCH   7   8
ENDBRANCH   6   7
ENDBRANCH   5   6
ENDBRANCH   1   5
TORSDOF 5
