MODEL 1
REMARK VINA RESULT:      -8.2      0.000      0.000
REMARK  8 active torsions:
REMARK  status: ('A' for Active; 'I' for Inactive)
REMARK    1  A    between atoms: C_5  and  C_7 
REMARK    2  A    between atoms: C_7  and  C_9 
REMARK    3  A    between atoms: C_15  and  C_16 
REMARK    4  A    between atoms: C_17  and  C_37 
REMARK    5  A    between atoms: N_18  and  C_22 
REMARK    6  A    between atoms: C_22  and  C_23 
REMARK    7  A    between atoms: C_25  and  C_33 
REMARK    8  A    between atoms: C_27  and  C_29 
ROOT
HETATM    1  C   UNK N   1      19.773  16.282   4.445  0.00  0.00     0.102 A 
HETATM    2  C   UNK N   1      20.183  15.008   4.111  0.00  0.00     0.089 A 
HETATM    3  N   UNK N   1      19.662  14.197   5.041  0.00  0.00    -0.268 N 
HETATM    4  N   UNK N   1      18.958  14.922   5.895  0.00  0.00    -0.019 NA
HETATM    5  N   UNK N   1      19.022  16.205   5.562  0.00  0.00    -0.280 N 
ATOM      6  HN  UNK N   1      18.586  16.984   6.057  1.00  0.00     0.184 HD
ENDROOT
BRANCH   1   7
HETATM    7  C   UNK N   1      20.141  17.523   3.753  0.00  0.00     0.076 A 
HETATM    8  N   UNK N   1      19.562  17.806   2.555  0.00  0.00    -0.363 N 
HETATM    9  C   UNK N   1      19.900  18.905   1.835  0.00  0.00     0.088 A 
ATOM     10  HN  UNK N   1      18.851  17.174   2.187  1.00  0.00     0.165 HD
HETATM   11  C   UNK N   1      20.884  19.769   2.307  0.00  0.00     0.018 A 
HETATM   12  C   UNK N   1      21.490  19.512   3.538  0.00  0.00     0.019 A 
HETATM   13  C   UNK N   1      21.104  18.395   4.286  0.00  0.00     0.044 A 
BRANCH  13  14
HETATM   14  C   UNK N   1      21.783  18.084   5.557  0.00  0.00     0.196 C 
HETATM   15  O   UNK N   1      21.438  18.704   6.555  0.00  0.00    -0.286 OA
BRANCH  14  16
HETATM   16  C   UNK N   1      22.973  17.183   5.641  0.00  0.00     0.037 A 
HETATM   17  C   UNK N   1      24.238  17.437   5.028  0.00  0.00     0.048 A 
HETATM   18  C   UNK N   1      25.291  16.543   5.229  0.00  0.00     0.025 A 
HETATM   19 Cl   UNK N   1      24.616  18.837   4.036  0.00  0.00    -0.083 Cl
HETATM   20  C   UNK N   1      25.132  15.412   6.024  0.00  0.00     0.002 A 
HETATM   21  C   UNK N   1      23.906  15.157   6.632  0.00  0.00     0.001 A 
HETATM   22  C   UNK N   1      22.840  16.034   6.442  0.00  0.00     0.017 A 
ENDBRANCH  14  16
ENDBRANCH  13  14
ENDBRANCH   1   7
BRANCH   2  23
HETATM   23  C   UNK N   1      21.119  14.587   3.037  0.00  0.00    -0.003 A 
HETATM   24  C   UNK N   1      20.639  14.219   1.776  0.00  0.00     0.031 A 
HETATM   25  C   UNK N   1      21.525  13.866   0.765  0.00  0.00     0.088 A 
HETATM   26  N   UNK N   1      22.863  13.882   0.999  0.00  0.00    -0.375 N 
HETATM   27  C   UNK N   1      23.364  14.243   2.210  0.00  0.00     0.088 A 
ATOM     28  HN  UNK N   1      23.504  13.616   0.252  1.00  0.00     0.164 HD
HETATM   29  C   UNK N   1      22.502  14.608   3.243  0.00  0.00     0.031 A 
ENDBRANCH   2  23
BRANCH   3  30
HETATM   30  C   UNK N   1      19.937  12.776   5.186  0.00  0.00     0.185 C 
BRANCH  30  31
HETATM   31  C   UNK N   1      21.049  12.531   6.150  0.00  0.00    -0.037 A 
HETATM   32  C   UNK N   1      21.949  11.508   5.888  0.00  0.00     0.025 A 
HETATM   33  C   UNK N   1      22.819  11.061   6.885  0.00  0.00     0.049 A 
HETATM   34  C   UNK N   1      22.777  11.654   8.166  0.00  0.00     0.032 A 
HETATM   35  C   UNK N   1      21.873  12.702   8.422  0.00  0.00     0.049 A 
HETATM   36  C   UNK N   1      21.014  13.112   7.413  0.00  0.00     0.025 A 
BRANCH  33  37
HETATM   37  C   UNK N   1      23.623   9.828   6.603  0.00  0.00     0.417 C 
HETATM   38  F   UNK N   1      23.921   9.221   7.813  0.00  0.00    -0.166 F 
HETATM   39  F   UNK N   1      24.812  10.137   5.968  0.00  0.00    -0.166 F 
HETATM   40  F   UNK N   1      22.900   8.941   5.827  0.00  0.00    -0.166 F 
ENDBRANCH  33  37
BRANCH  35  41
HETATM   41  C   UNK N   1      21.680  13.271   9.799  0.00  0.00     0.417 C 
HETATM   42  F   UNK N   1      22.823  13.141  10.563  0.00  0.00    -0.166 F 
HETATM   43  F   UNK N   1      21.344  14.617   9.729  0.00  0.00    -0.166 F 
HETATM   44  F   UNK N   1      20.637  12.601  10.408  0.00  0.00    -0.166 F 
ENDBRANCH  35  41
ENDBRANCH  30  31
ENDBRANCH   3  30
TORSDOF 8
ENDMDL
MODEL 2
REMARK VINA RESULT:      -8.1      4.600      7.052
REMARK  8 active torsions:
REMARK  status: ('A' for Active; 'I' for Inactive)
REMARK    1  A    between atoms: C_5  and  C_7 
REMARK    2  A    between atoms: C_7  and  C_9 
REMARK    3  A    between atoms: C_15  and  C_16 
REMARK    4  A    between atoms: C_17  and  C_37 
REMARK    5  A    between atoms: N_18  and  C_22 
REMARK    6  A    between atoms: C_22  and  C_23 
REMARK    7  A    between atoms: C_25  and  C_33 
REMARK    8  A    between atoms: C_27  and  C_29 
ROOT
HETATM    1  C   UNK N   1      22.691  15.427   6.693  0.00  0.00     0.102 A 
HETATM    2  C   UNK N   1      22.765  15.368   5.316  0.00  0.00     0.089 A 
HETATM    3  N   UNK N   1      24.056  15.166   5.023  0.00  0.00    -0.268 N 
HETATM    4  N   UNK N   1      24.744  15.091   6.151  0.00  0.00    -0.019 NA
HETATM    5  N   UNK N   1      23.934  15.262   7.189  0.00  0.00    -0.280 N 
ATOM      6  HN  UNK N   1      24.202  15.269   8.174  1.00  0.00     0.184 HD
ENDROOT
BRANCH   1   7
HETATM    7  C   UNK N   1      21.487  15.692   7.488  0.00  0.00     0.076 A 
HETATM    8  N   UNK N   1      20.949  16.941   7.473  0.00  0.00    -0.363 N 
HETATM    9  C   UNK N   1      19.872  17.269   8.231  0.00  0.00     0.088 A 
ATOM     10  HN  UNK N   1      21.366  17.652   6.873  1.00  0.00     0.165 HD
HETATM   11  C   UNK N   1      19.301  16.320   9.074  0.00  0.00     0.018 A 
HETATM   12  C   UNK N   1      19.824  15.026   9.105  0.00  0.00     0.019 A 
HETATM   13  C   UNK N   1      20.911  14.693   8.290  0.00  0.00     0.044 A 
BRANCH  13  14
HETATM   14  C   UNK N   1      21.506  13.346   8.363  0.00  0.00     0.196 C 
HETATM   15  O   UNK N   1      21.139  12.514   7.543  0.00  0.00    -0.286 OA
BRANCH  14  16
HETATM   16  C   UNK N   1      22.394  12.912   9.485  0.00  0.00     0.037 A 
HETATM   17  C   UNK N   1      21.938  12.464  10.763  0.00  0.00     0.048 A 
HETATM   18  C   UNK N   1      22.868  12.029  11.710  0.00  0.00     0.025 A 
HETATM   19 Cl   UNK N   1      20.256  12.372  11.261  0.00  0.00    -0.083 Cl
HETATM   20  C   UNK N   1      24.231  12.019  11.427  0.00  0.00     0.002 A 
HETATM   21  C   UNK N   1      24.685  12.447  10.184  0.00  0.00     0.001 A 
HETATM   22  C   UNK N   1      23.776  12.888   9.225  0.00  0.00     0.017 A 
ENDBRANCH  14  16
ENDBRANCH  13  14
ENDBRANCH   1   7
BRANCH   2  23
HETATM   23  C   UNK N   1      21.690  15.609   4.320  0.00  0.00    -0.003 A 
HETATM   24  C   UNK N   1      20.896  14.554   3.857  0.00  0.00     0.031 A 
HETATM   25  C   UNK N   1      19.866  14.796   2.956  0.00  0.00     0.088 A 
HETATM   26  N   UNK N   1      19.625  16.061   2.524  0.00  0.00    -0.375 N 
HETATM   27  C   UNK N   1      20.371  17.111   2.960  0.00  0.00     0.088 A 
ATOM     28  HN  UNK N   1      18.870  16.226   1.859  1.00  0.00     0.164 HD
HETATM   29  C   UNK N   1      21.407  16.902   3.868  0.00  0.00     0.031 A 
ENDBRANCH   2  23
BRANCH   3  30
HETATM   30  C   UNK N   1      24.642  15.175   3.691  0.00  0.00     0.185 C 
BRANCH  30  31
HETATM   31  C   UNK N   1      25.537  16.352   3.497  0.00  0.00    -0.037 A 
HETATM   32  C   UNK N   1      26.906  16.185   3.652  0.00  0.00     0.025 A 
HETATM   33  C   UNK N   1      27.744  17.296   3.762  0.00  0.00     0.049 A 
HETATM   34  C   UNK N   1      27.192  18.595   3.720  0.00  0.00     0.032 A 
HETATM   35  C   UNK N   1      25.805  18.760   3.547  0.00  0.00     0.049 A 
HETATM   36  C   UNK N   1      25.000  17.635   3.454  0.00  0.00     0.025 A 
BRANCH  33  37
HETATM   37  C   UNK N   1      29.178  17.051   4.125  0.00  0.00     0.417 C 
HETATM   38  F   UNK N   1      29.703  18.229   4.632  0.00  0.00    -0.166 F 
HETATM   39  F   UNK N   1      29.921  16.685   3.018  0.00  0.00    -0.166 F 
HETATM   40  F   UNK N   1      29.274  16.069   5.094  0.00  0.00    -0.166 F 
ENDBRANCH  33  37
BRANCH  35  41
HETATM   41  C   UNK N   1      25.143  20.105   3.639  0.00  0.00     0.417 C 
HETATM   42  F   UNK N   1      25.448  20.893   2.547  0.00  0.00    -0.166 F 
HETATM   43  F   UNK N   1      23.763  19.968   3.716  0.00  0.00    -0.166 F 
HETATM   44  F   UNK N   1      25.576  20.728   4.795  0.00  0.00    -0.166 F 
ENDBRANCH  35  41
ENDBRANCH  30  31
ENDBRANCH   3  30
TORSDOF 8
ENDMDL
MODEL 3
REMARK VINA RESULT:      -8.0     14.722     16.346
REMARK  8 active torsions:
REMARK  status: ('A' for Active; 'I' for Inactive)
REMARK    1  A    between atoms: C_5  and  C_7 
REMARK    2  A    between atoms: C_7  and  C_9 
REMARK    3  A    between atoms: C_15  and  C_16 
REMARK    4  A    between atoms: C_17  and  C_37 
REMARK    5  A    between atoms: N_18  and  C_22 
REMARK    6  A    between atoms: C_22  and  C_23 
REMARK    7  A    between atoms: C_25  and  C_33 
REMARK    8  A    between atoms: C_27  and  C_29 
ROOT
HETATM    1  C   UNK N   1      27.564  24.764  -3.518  0.00  0.00     0.102 A 
HETATM    2  C   UNK N   1      28.928  24.579  -3.610  0.00  0.00     0.089 A 
HETATM    3  N   UNK N   1      29.210  23.522  -2.835  0.00  0.00    -0.268 N 
HETATM    4  N   UNK N   1      28.086  23.070  -2.303  0.00  0.00    -0.019 NA
HETATM    5  N   UNK N   1      27.065  23.822  -2.693  0.00  0.00    -0.280 N 
ATOM      6  HN  UNK N   1      26.088  23.709  -2.420  1.00  0.00     0.184 HD
ENDROOT
BRANCH   1   7
HETATM    7  C   UNK N   1      26.789  25.840  -4.148  0.00  0.00     0.076 A 
HETATM    8  N   UNK N   1      26.844  27.090  -3.616  0.00  0.00    -0.363 N 
HETATM    9  C   UNK N   1      26.107  28.116  -4.112  0.00  0.00     0.088 A 
ATOM     10  HN  UNK N   1      27.458  27.263  -2.819  1.00  0.00     0.165 HD
HETATM   11  C   UNK N   1      25.245  27.897  -5.183  0.00  0.00     0.018 A 
HETATM   12  C   UNK N   1      25.174  26.627  -5.758  0.00  0.00     0.019 A 
HETATM   13  C   UNK N   1      25.967  25.589  -5.259  0.00  0.00     0.044 A 
BRANCH  13  14
HETATM   14  C   UNK N   1      25.852  24.232  -5.822  0.00  0.00     0.196 C 
HETATM   15  O   UNK N   1      25.245  23.393  -5.169  0.00  0.00    -0.286 OA
BRANCH  14  16
HETATM   16  C   UNK N   1      26.579  23.801  -7.055  0.00  0.00     0.037 A 
HETATM   17  C   UNK N   1      26.150  22.763  -7.938  0.00  0.00     0.048 A 
HETATM   18  C   UNK N   1      26.890  22.492  -9.091  0.00  0.00     0.025 A 
HETATM   19 Cl   UNK N   1      24.707  21.784  -7.721  0.00  0.00    -0.083 Cl
HETATM   20  C   UNK N   1      28.036  23.221  -9.397  0.00  0.00     0.002 A 
HETATM   21  C   UNK N   1      28.460  24.237  -8.547  0.00  0.00     0.001 A 
HETATM   22  C   UNK N   1      27.739  24.523  -7.390  0.00  0.00     0.017 A 
ENDBRANCH  14  16
ENDBRANCH  13  14
ENDBRANCH   1   7
BRANCH   2  23
HETATM   23  C   UNK N   1      29.935  25.427  -4.299  0.00  0.00    -0.003 A 
HETATM   24  C   UNK N   1      30.454  26.566  -3.676  0.00  0.00     0.031 A 
HETATM   25  C   UNK N   1      31.425  27.330  -4.312  0.00  0.00     0.088 A 
HETATM   26  N   UNK N   1      31.875  26.969  -5.542  0.00  0.00    -0.375 N 
HETATM   27  C   UNK N   1      31.398  25.863  -6.173  0.00  0.00     0.088 A 
ATOM     28  HN  UNK N   1      32.584  27.540  -6.002  1.00  0.00     0.164 HD
HETATM   29  C   UNK N   1      30.428  25.073  -5.558  0.00  0.00     0.031 A 
ENDBRANCH   2  23
BRANCH   3  30
HETATM   30  C   UNK N   1      30.541  23.035  -2.506  0.00  0.00     0.185 C 
BRANCH  30  31
HETATM   31  C   UNK N   1      30.949  21.916  -3.404  0.00  0.00    -0.037 A 
HETATM   32  C   UNK N   1      32.212  21.362  -3.251  0.00  0.00     0.025 A 
HETATM   33  C   UNK N   1      32.739  20.523  -4.235  0.00  0.00     0.049 A 
HETATM   34  C   UNK N   1      31.981  20.244  -5.394  0.00  0.00     0.032 A 
HETATM   35  C   UNK N   1      30.694  20.795  -5.537  0.00  0.00     0.049 A 
HETATM   36  C   UNK N   1      30.207  21.635  -4.546  0.00  0.00     0.025 A 
BRANCH  33  37
HETATM   37  C   UNK N   1      34.176  20.119  -4.106  0.00  0.00     0.417 C 
HETATM   38  F   UNK N   1      34.765  20.214  -5.357  0.00  0.00    -0.166 F 
HETATM   39  F   UNK N   1      34.294  18.813  -3.669  0.00  0.00    -0.166 F 
HETATM   40  F   UNK N   1      34.844  20.961  -3.236  0.00  0.00    -0.166 F 
ENDBRANCH  33  37
BRANCH  35  41
HETATM   41  C   UNK N   1      29.902  20.654  -6.806  0.00  0.00     0.417 C 
HETATM   42  F   UNK N   1      30.560  21.225  -7.877  0.00  0.00    -0.166 F 
HETATM   43  F   UNK N   1      29.668  19.315  -7.091  0.00  0.00    -0.166 F 
HETATM   44  F   UNK N   1      28.679  21.274  -6.630  0.00  0.00    -0.166 F 
ENDBRANCH  35  41
ENDBRANCH  30  31
ENDBRANCH   3  30
TORSDOF 8
ENDMDL
MODEL 4
REMARK VINA RESULT:      -7.9     15.718     18.403
REMARK  8 active torsions:
REMARK  status: ('A' for Active; 'I' for Inactive)
REMARK    1  A    between atoms: C_5  and  C_7 
REMARK    2  A    between atoms: C_7  and  C_9 
REMARK    3  A    between atoms: C_15  and  C_16 
REMARK    4  A    between atoms: C_17  and  C_37 
REMARK    5  A    between atoms: N_18  and  C_22 
REMARK    6  A    between atoms: C_22  and  C_23 
REMARK    7  A    between atoms: C_25  and  C_33 
REMARK    8  A    between atoms: C_27  and  C_29 
ROOT
HETATM    1  C   UNK N   1      27.963  23.182  -6.415  0.00  0.00     0.102 A 
HETATM    2  C   UNK N   1      27.997  24.308  -7.213  0.00  0.00     0.089 A 
HETATM    3  N   UNK N   1      26.830  24.935  -7.016  0.00  0.00    -0.268 N 
HETATM    4  N   UNK N   1      26.117  24.247  -6.139  0.00  0.00    -0.019 NA
HETATM    5  N   UNK N   1      26.782  23.161  -5.766  0.00  0.00    -0.280 N 
ATOM      6  HN  UNK N   1      26.460  22.446  -5.113  1.00  0.00     0.184 HD
ENDROOT
BRANCH   1   7
HETATM    7  C   UNK N   1      28.997  22.144  -6.333  0.00  0.00     0.076 A 
HETATM    8  N   UNK N   1      29.064  21.201  -7.311  0.00  0.00    -0.363 N 
HETATM    9  C   UNK N   1      29.956  20.181  -7.265  0.00  0.00     0.088 A 
ATOM     10  HN  UNK N   1      28.425  21.264  -8.103  1.00  0.00     0.165 HD
HETATM   11  C   UNK N   1      30.822  20.063  -6.182  0.00  0.00     0.018 A 
HETATM   12  C   UNK N   1      30.786  21.020  -5.167  0.00  0.00     0.019 A 
HETATM   13  C   UNK N   1      29.886  22.088  -5.246  0.00  0.00     0.044 A 
BRANCH  13  14
HETATM   14  C   UNK N   1      29.800  23.067  -4.148  0.00  0.00     0.196 C 
HETATM   15  O   UNK N   1      29.174  22.748  -3.146  0.00  0.00    -0.286 OA
BRANCH  14  16
HETATM   16  C   UNK N   1      30.289  24.474  -4.276  0.00  0.00     0.037 A 
HETATM   17  C   UNK N   1      29.500  25.641  -4.038  0.00  0.00     0.048 A 
HETATM   18  C   UNK N   1      30.091  26.902  -4.136  0.00  0.00     0.025 A 
HETATM   19 Cl   UNK N   1      27.803  25.637  -3.584  0.00  0.00    -0.083 Cl
HETATM   20  C   UNK N   1      31.439  27.041  -4.455  0.00  0.00     0.002 A 
HETATM   21  C   UNK N   1      32.219  25.912  -4.682  0.00  0.00     0.001 A 
HETATM   22  C   UNK N   1      31.649  24.644  -4.594  0.00  0.00     0.017 A 
ENDBRANCH  14  16
ENDBRANCH  13  14
ENDBRANCH   1   7
BRANCH   2  23
HETATM   23  C   UNK N   1      29.029  24.712  -8.202  0.00  0.00    -0.003 A 
HETATM   24  C   UNK N   1      30.147  25.452  -7.805  0.00  0.00     0.031 A 
HETATM   25  C   UNK N   1      31.127  25.791  -8.731  0.00  0.00     0.088 A 
HETATM   26  N   UNK N   1      31.003  25.399 -10.025  0.00  0.00    -0.375 N 
HETATM   27  C   UNK N   1      29.933  24.670 -10.443  0.00  0.00     0.088 A 
ATOM     28  HN  UNK N   1      31.726  25.657 -10.697  1.00  0.00     0.164 HD
HETATM   29  C   UNK N   1      28.936  24.311  -9.538  0.00  0.00     0.031 A 
ENDBRANCH   2  23
BRANCH   3  30
HETATM   30  C   UNK N   1      26.351  26.097  -7.748  0.00  0.00     0.185 C 
BRANCH  30  31
HETATM   31  C   UNK N   1      26.763  27.368  -7.085  0.00  0.00    -0.037 A 
HETATM   32  C   UNK N   1      27.844  28.071  -7.597  0.00  0.00     0.025 A 
HETATM   33  C   UNK N   1      28.436  29.094  -6.855  0.00  0.00     0.049 A 
HETATM   34  C   UNK N   1      27.932  29.409  -5.573  0.00  0.00     0.032 A 
HETATM   35  C   UNK N   1      26.825  28.705  -5.065  0.00  0.00     0.049 A 
HETATM   36  C   UNK N   1      26.269  27.686  -5.824  0.00  0.00     0.025 A 
BRANCH  33  37
HETATM   37  C   UNK N   1      29.716  29.678  -7.373  0.00  0.00     0.417 C 
HETATM   38  F   UNK N   1      30.008  30.809  -6.628  0.00  0.00    -0.166 F 
HETATM   39  F   UNK N   1      29.598  30.049  -8.699  0.00  0.00    -0.166 F 
HETATM   40  F   UNK N   1      30.754  28.775  -7.235  0.00  0.00    -0.166 F 
ENDBRANCH  33  37
BRANCH  35  41
HETATM   41  C   UNK N   1      26.337  28.894  -3.657  0.00  0.00     0.417 C 
HETATM   42  F   UNK N   1      25.296  28.034  -3.365  0.00  0.00    -0.166 F 
HETATM   43  F   UNK N   1      27.363  28.672  -2.748  0.00  0.00    -0.166 F 
HETATM   44  F   UNK N   1      25.912  30.201  -3.511  0.00  0.00    -0.166 F 
ENDBRANCH  35  41
ENDBRANCH  30  31
ENDBRANCH   3  30
TORSDOF 8
ENDMDL
MODEL 5
REMARK VINA RESULT:      -7.7     14.792     18.056
REMARK  8 active torsions:
REMARK  status: ('A' for Active; 'I' for Inactive)
REMARK    1  A    between atoms: C_5  and  C_7 
REMARK    2  A    between atoms: C_7  and  C_9 
REMARK    3  A    between atoms: C_15  and  C_16 
REMARK    4  A    between atoms: C_17  and  C_37 
REMARK    5  A    between atoms: N_18  and  C_22 
REMARK    6  A    between atoms: C_22  and  C_23 
REMARK    7  A    between atoms: C_25  and  C_33 
REMARK    8  A    between atoms: C_27  and  C_29 
ROOT
HETATM    1  C   UNK N   1      29.804  23.221  -8.472  0.00  0.00     0.102 A 
HETATM    2  C   UNK N   1      28.513  23.570  -8.813  0.00  0.00     0.089 A 
HETATM    3  N   UNK N   1      28.578  24.830  -9.263  0.00  0.00    -0.268 N 
HETATM    4  N   UNK N   1      29.837  25.236  -9.218  0.00  0.00    -0.019 NA
HETATM    5  N   UNK N   1      30.606  24.276  -8.723  0.00  0.00    -0.280 N 
ATOM      6  HN  UNK N   1      31.613  24.325  -8.562  1.00  0.00     0.184 HD
ENDROOT
BRANCH   1   7
HETATM    7  C   UNK N   1      30.232  21.951  -7.874  0.00  0.00     0.076 A 
HETATM    8  N   UNK N   1      30.206  20.823  -8.633  0.00  0.00    -0.363 N 
HETATM    9  C   UNK N   1      30.531  19.607  -8.127  0.00  0.00     0.088 A 
ATOM     10  HN  UNK N   1      29.935  20.893  -9.614  1.00  0.00     0.165 HD
HETATM   11  C   UNK N   1      30.882  19.485  -6.785  0.00  0.00     0.018 A 
HETATM   12  C   UNK N   1      30.928  20.626  -5.982  0.00  0.00     0.019 A 
HETATM   13  C   UNK N   1      30.626  21.877  -6.528  0.00  0.00     0.044 A 
BRANCH  13  14
HETATM   14  C   UNK N   1      30.613  23.076  -5.670  0.00  0.00     0.196 C 
HETATM   15  O   UNK N   1      31.537  23.872  -5.787  0.00  0.00    -0.286 OA
BRANCH  14  16
HETATM   16  C   UNK N   1      29.627  23.270  -4.563  0.00  0.00     0.037 A 
HETATM   17  C   UNK N   1      29.814  22.837  -3.215  0.00  0.00     0.048 A 
HETATM   18  C   UNK N   1      28.841  23.130  -2.257  0.00  0.00     0.025 A 
HETATM   19 Cl   UNK N   1      31.221  21.969  -2.619  0.00  0.00    -0.083 Cl
HETATM   20  C   UNK N   1      27.695  23.844  -2.594  0.00  0.00     0.002 A 
HETATM   21  C   UNK N   1      27.504  24.276  -3.902  0.00  0.00     0.001 A 
HETATM   22  C   UNK N   1      28.460  23.992  -4.874  0.00  0.00     0.017 A 
ENDBRANCH  14  16
ENDBRANCH  13  14
ENDBRANCH   1   7
BRANCH   2  23
HETATM   23  C   UNK N   1      27.261  22.797  -8.613  0.00  0.00    -0.003 A 
HETATM   24  C   UNK N   1      26.776  21.952  -9.617  0.00  0.00     0.031 A 
HETATM   25  C   UNK N   1      25.626  21.202  -9.405  0.00  0.00     0.088 A 
HETATM   26  N   UNK N   1      24.970  21.284  -8.218  0.00  0.00    -0.375 N 
HETATM   27  C   UNK N   1      25.419  22.088  -7.218  0.00  0.00     0.088 A 
ATOM     28  HN  UNK N   1      24.124  20.733  -8.075  1.00  0.00     0.164 HD
HETATM   29  C   UNK N   1      26.573  22.849  -7.397  0.00  0.00     0.031 A 
ENDBRANCH   2  23
BRANCH   3  30
HETATM   30  C   UNK N   1      27.444  25.673  -9.608  0.00  0.00     0.185 C 
BRANCH  30  31
HETATM   31  C   UNK N   1      27.149  26.658  -8.527  0.00  0.00    -0.037 A 
HETATM   32  C   UNK N   1      28.041  27.698  -8.307  0.00  0.00     0.025 A 
HETATM   33  C   UNK N   1      27.958  28.465  -7.144  0.00  0.00     0.049 A 
HETATM   34  C   UNK N   1      26.963  28.174  -6.184  0.00  0.00     0.032 A 
HETATM   35  C   UNK N   1      26.051  27.128  -6.418  0.00  0.00     0.049 A 
HETATM   36  C   UNK N   1      26.170  26.379  -7.580  0.00  0.00     0.025 A 
BRANCH  33  37
HETATM   37  C   UNK N   1      29.066  29.438  -6.873  0.00  0.00     0.417 C 
HETATM   38  F   UNK N   1      28.508  30.589  -6.338  0.00  0.00    -0.166 F 
HETATM   39  F   UNK N   1      29.732  29.778  -8.036  0.00  0.00    -0.166 F 
HETATM   40  F   UNK N   1      29.963  28.914  -5.961  0.00  0.00    -0.166 F 
ENDBRANCH  33  37
BRANCH  35  41
HETATM   41  C   UNK N   1      25.068  26.678  -5.376  0.00  0.00     0.417 C 
HETATM   42  F   UNK N   1      24.884  25.310  -5.415  0.00  0.00    -0.166 F 
HETATM   43  F   UNK N   1      25.504  27.031  -4.106  0.00  0.00    -0.166 F 
HETATM   44  F   UNK N   1      23.862  27.314  -5.606  0.00  0.00    -0.166 F 
ENDBRANCH  35  41
ENDBRANCH  30  31
ENDBRANCH   3  30
TORSDOF 8
ENDMDL
MODEL 6
REMARK VINA RESULT:      -7.6      3.604      5.342
REMARK  8 active torsions:
REMARK  status: ('A' for Active; 'I' for Inactive)
REMARK    1  A    between atoms: C_5  and  C_7 
REMARK    2  A    between atoms: C_7  and  C_9 
REMARK    3  A    between atoms: C_15  and  C_16 
REMARK    4  A    between atoms: C_17  and  C_37 
REMARK    5  A    between atoms: N_18  and  C_22 
REMARK    6  A    between atoms: C_22  and  C_23 
REMARK    7  A    between atoms: C_25  and  C_33 
REMARK    8  A    between atoms: C_27  and  C_29 
ROOT
HETATM    1  C   UNK N   1      25.842  16.809   5.890  0.00  0.00     0.102 A 
HETATM    2  C   UNK N   1      24.565  16.288   5.841  0.00  0.00     0.089 A 
HETATM    3  N   UNK N   1      24.624  15.106   6.468  0.00  0.00    -0.268 N 
HETATM    4  N   UNK N   1      25.861  14.908   6.894  0.00  0.00    -0.019 NA
HETATM    5  N   UNK N   1      26.631  15.929   6.540  0.00  0.00    -0.280 N 
ATOM      6  HN  UNK N   1      27.630  16.029   6.724  1.00  0.00     0.184 HD
ENDROOT
BRANCH   1   7
HETATM    7  C   UNK N   1      26.292  18.067   5.284  0.00  0.00     0.076 A 
HETATM    8  N   UNK N   1      26.178  19.220   5.996  0.00  0.00    -0.363 N 
HETATM    9  C   UNK N   1      26.519  20.425   5.474  0.00  0.00     0.088 A 
ATOM     10  HN  UNK N   1      25.827  19.178   6.953  1.00  0.00     0.165 HD
HETATM   11  C   UNK N   1      26.979  20.508   4.163  0.00  0.00     0.018 A 
HETATM   12  C   UNK N   1      27.116  19.342   3.409  0.00  0.00     0.019 A 
HETATM   13  C   UNK N   1      26.796  18.103   3.973  0.00  0.00     0.044 A 
BRANCH  13  14
HETATM   14  C   UNK N   1      26.881  16.876   3.163  0.00  0.00     0.196 C 
HETATM   15  O   UNK N   1      25.908  16.572   2.483  0.00  0.00    -0.286 OA
BRANCH  14  16
HETATM   16  C   UNK N   1      28.018  15.911   3.268  0.00  0.00     0.037 A 
HETATM   17  C   UNK N   1      27.882  14.504   3.475  0.00  0.00     0.048 A 
HETATM   18  C   UNK N   1      29.023  13.700   3.498  0.00  0.00     0.025 A 
HETATM   19 Cl   UNK N   1      26.357  13.655   3.676  0.00  0.00    -0.083 Cl
HETATM   20  C   UNK N   1      30.290  14.245   3.315  0.00  0.00     0.002 A 
HETATM   21  C   UNK N   1      30.435  15.613   3.106  0.00  0.00     0.001 A 
HETATM   22  C   UNK N   1      29.310  16.435   3.083  0.00  0.00     0.017 A 
ENDBRANCH  14  16
ENDBRANCH  13  14
ENDBRANCH   1   7
BRANCH   2  23
HETATM   23  C   UNK N   1      23.373  16.823   5.134  0.00  0.00    -0.003 A 
HETATM   24  C   UNK N   1      22.944  16.257   3.930  0.00  0.00     0.031 A 
HETATM   25  C   UNK N   1      21.804  16.738   3.297  0.00  0.00     0.088 A 
HETATM   26  N   UNK N   1      21.100  17.761   3.850  0.00  0.00    -0.375 N 
HETATM   27  C   UNK N   1      21.485  18.329   5.024  0.00  0.00     0.088 A 
ATOM     28  HN  UNK N   1      20.268  18.110   3.375  1.00  0.00     0.164 HD
HETATM   29  C   UNK N   1      22.620  17.865   5.686  0.00  0.00     0.031 A 
ENDBRANCH   2  23
BRANCH   3  30
HETATM   30  C   UNK N   1      23.551  14.127   6.546  0.00  0.00     0.185 C 
BRANCH  30  31
HETATM   31  C   UNK N   1      22.765  14.277   7.804  0.00  0.00    -0.037 A 
HETATM   32  C   UNK N   1      22.929  13.338   8.813  0.00  0.00     0.025 A 
HETATM   33  C   UNK N   1      22.023  13.274   9.873  0.00  0.00     0.049 A 
HETATM   34  C   UNK N   1      20.930  14.168   9.912  0.00  0.00     0.032 A 
HETATM   35  C   UNK N   1      20.776  15.129   8.896  0.00  0.00     0.049 A 
HETATM   36  C   UNK N   1      21.689  15.157   7.852  0.00  0.00     0.025 A 
BRANCH  33  37
HETATM   37  C   UNK N   1      22.140  12.117  10.818  0.00  0.00     0.417 C 
HETATM   38  F   UNK N   1      20.876  11.831  11.310  0.00  0.00    -0.166 F 
HETATM   39  F   UNK N   1      22.963  12.422  11.887  0.00  0.00    -0.166 F 
HETATM   40  F   UNK N   1      22.625  11.000  10.164  0.00  0.00    -0.166 F 
ENDBRANCH  33  37
BRANCH  35  41
HETATM   41  C   UNK N   1      19.561  16.008   8.805  0.00  0.00     0.417 C 
HETATM   42  F   UNK N   1      19.850  17.306   9.179  0.00  0.00    -0.166 F 
HETATM   43  F   UNK N   1      19.061  16.020   7.510  0.00  0.00    -0.166 F 
HETATM   44  F   UNK N   1      18.584  15.494   9.636  0.00  0.00    -0.166 F 
ENDBRANCH  35  41
ENDBRANCH  30  31
ENDBRANCH   3  30
TORSDOF 8
ENDMDL
MODEL 7
REMARK VINA RESULT:      -7.6     11.326     14.434
REMARK  8 active torsions:
REMARK  status: ('A' for Active; 'I' for Inactive)
REMARK    1  A    between atoms: C_5  and  C_7 
REMARK    2  A    between atoms: C_7  and  C_9 
REMARK    3  A    between atoms: C_15  and  C_16 
REMARK    4  A    between atoms: C_17  and  C_37 
REMARK    5  A    between atoms: N_18  and  C_22 
REMARK    6  A    between atoms: C_22  and  C_23 
REMARK    7  A    between atoms: C_25  and  C_33 
REMARK    8  A    between atoms: C_27  and  C_29 
ROOT
HETATM    1  C   UNK N   1      34.107  14.051   9.688  0.00  0.00     0.102 A 
HETATM    2  C   UNK N   1      34.506  14.755   8.571  0.00  0.00     0.089 A 
HETATM    3  N   UNK N   1      34.370  16.051   8.883  0.00  0.00    -0.268 N 
HETATM    4  N   UNK N   1      33.925  16.147  10.125  0.00  0.00    -0.019 NA
HETATM    5  N   UNK N   1      33.741  14.937  10.637  0.00  0.00    -0.280 N 
ATOM      6  HN  UNK N   1      33.389  14.718  11.569  1.00  0.00     0.184 HD
ENDROOT
BRANCH   1   7
HETATM    7  C   UNK N   1      34.025  12.591   9.811  0.00  0.00     0.076 A 
HETATM    8  N   UNK N   1      32.907  11.954   9.370  0.00  0.00    -0.363 N 
HETATM    9  C   UNK N   1      32.740  10.615   9.507  0.00  0.00     0.088 A 
ATOM     10  HN  UNK N   1      32.171  12.501   8.920  1.00  0.00     0.165 HD
HETATM   11  C   UNK N   1      33.720   9.854  10.138  0.00  0.00     0.018 A 
HETATM   12  C   UNK N   1      34.884  10.476  10.593  0.00  0.00     0.019 A 
HETATM   13  C   UNK N   1      35.058  11.852  10.411  0.00  0.00     0.044 A 
BRANCH  13  14
HETATM   14  C   UNK N   1      36.256  12.524  10.944  0.00  0.00     0.196 C 
HETATM   15  O   UNK N   1      37.150  12.808  10.156  0.00  0.00    -0.286 OA
BRANCH  14  16
HETATM   16  C   UNK N   1      36.496  12.714  12.407  0.00  0.00     0.037 A 
HETATM   17  C   UNK N   1      37.075  11.739  13.276  0.00  0.00     0.048 A 
HETATM   18  C   UNK N   1      37.300  12.059  14.616  0.00  0.00     0.025 A 
HETATM   19 Cl   UNK N   1      37.580  10.127  12.790  0.00  0.00    -0.083 Cl
HETATM   20  C   UNK N   1      36.976  13.316  15.118  0.00  0.00     0.002 A 
HETATM   21  C   UNK N   1      36.418  14.276  14.281  0.00  0.00     0.001 A 
HETATM   22  C   UNK N   1      36.181  13.977  12.941  0.00  0.00     0.017 A 
ENDBRANCH  14  16
ENDBRANCH  13  14
ENDBRANCH   1   7
BRANCH   2  23
HETATM   23  C   UNK N   1      34.885  14.233   7.233  0.00  0.00    -0.003 A 
HETATM   24  C   UNK N   1      33.914  13.720   6.366  0.00  0.00     0.031 A 
HETATM   25  C   UNK N   1      34.273  13.271   5.101  0.00  0.00     0.088 A 
HETATM   26  N   UNK N   1      35.569  13.333   4.700  0.00  0.00    -0.375 N 
HETATM   27  C   UNK N   1      36.537  13.835   5.514  0.00  0.00     0.088 A 
ATOM     28  HN  UNK N   1      35.822  12.997   3.771  1.00  0.00     0.164 HD
HETATM   29  C   UNK N   1      36.208  14.298   6.786  0.00  0.00     0.031 A 
ENDBRANCH   2  23
BRANCH   3  30
HETATM   30  C   UNK N   1      34.537  17.171   7.970  0.00  0.00     0.185 C 
BRANCH  30  31
HETATM   31  C   UNK N   1      33.347  17.337   7.087  0.00  0.00    -0.037 A 
HETATM   32  C   UNK N   1      32.096  17.489   7.669  0.00  0.00     0.025 A 
HETATM   33  C   UNK N   1      30.939  17.362   6.900  0.00  0.00     0.049 A 
HETATM   34  C   UNK N   1      31.045  17.071   5.521  0.00  0.00     0.032 A 
HETATM   35  C   UNK N   1      32.315  16.934   4.932  0.00  0.00     0.049 A 
HETATM   36  C   UNK N   1      33.444  17.054   5.728  0.00  0.00     0.025 A 
BRANCH  33  37
HETATM   37  C   UNK N   1      29.624  17.339   7.620  0.00  0.00     0.417 C 
HETATM   38  F   UNK N   1      29.142  18.637   7.679  0.00  0.00    -0.166 F 
HETATM   39  F   UNK N   1      29.768  16.870   8.912  0.00  0.00    -0.166 F 
HETATM   40  F   UNK N   1      28.710  16.555   6.941  0.00  0.00    -0.166 F 
ENDBRANCH  33  37
BRANCH  35  41
HETATM   41  C   UNK N   1      32.491  16.484   3.509  0.00  0.00     0.417 C 
HETATM   42  F   UNK N   1      32.211  17.503   2.620  0.00  0.00    -0.166 F 
HETATM   43  F   UNK N   1      33.791  16.048   3.290  0.00  0.00    -0.166 F 
HETATM   44  F   UNK N   1      31.639  15.421   3.277  0.00  0.00    -0.166 F 
ENDBRANCH  35  41
ENDBRANCH  30  31
ENDBRANCH   3  30
TORSDOF 8
ENDMDL
MODEL 8
REMARK VINA RESULT:      -7.6     14.801     16.941
REMARK  8 active torsions:
REMARK  status: ('A' for Active; 'I' for Inactive)
REMARK    1  A    between atoms: C_5  and  C_7 
REMARK    2  A    between atoms: C_7  and  C_9 
REMARK    3  A    between atoms: C_15  and  C_16 
REMARK    4  A    between atoms: C_17  and  C_37 
REMARK    5  A    between atoms: N_18  and  C_22 
REMARK    6  A    between atoms: C_22  and  C_23 
REMARK    7  A    between atoms: C_25  and  C_33 
REMARK    8  A    between atoms: C_27  and  C_29 
ROOT
HETATM    1  C   UNK N   1      29.615  26.183  -4.042  0.00  0.00     0.102 A 
HETATM    2  C   UNK N   1      29.023  24.936  -4.032  0.00  0.00     0.089 A 
HETATM    3  N   UNK N   1      29.851  24.140  -3.343  0.00  0.00    -0.268 N 
HETATM    4  N   UNK N   1      30.890  24.851  -2.937  0.00  0.00    -0.019 NA
HETATM    5  N   UNK N   1      30.779  26.103  -3.364  0.00  0.00    -0.280 N 
ATOM      6  HN  UNK N   1      31.446  26.859  -3.210  1.00  0.00     0.184 HD
ENDROOT
BRANCH   1   7
HETATM    7  C   UNK N   1      29.111  27.379  -4.726  0.00  0.00     0.076 A 
HETATM    8  N   UNK N   1      28.032  28.028  -4.212  0.00  0.00    -0.363 N 
HETATM    9  C   UNK N   1      27.480  29.104  -4.826  0.00  0.00     0.088 A 
ATOM     10  HN  UNK N   1      27.627  27.696  -3.336  1.00  0.00     0.165 HD
HETATM   11  C   UNK N   1      28.002  29.559  -6.033  0.00  0.00     0.018 A 
HETATM   12  C   UNK N   1      29.116  28.921  -6.582  0.00  0.00     0.019 A 
HETATM   13  C   UNK N   1      29.697  27.836  -5.918  0.00  0.00     0.044 A 
BRANCH  13  14
HETATM   14  C   UNK N   1      30.835  27.120  -6.524  0.00  0.00     0.196 C 
HETATM   15  O   UNK N   1      31.948  27.619  -6.414  0.00  0.00    -0.286 OA
BRANCH  14  16
HETATM   16  C   UNK N   1      30.664  25.920  -7.399  0.00  0.00     0.037 A 
HETATM   17  C   UNK N   1      31.342  24.675  -7.222  0.00  0.00     0.048 A 
HETATM   18  C   UNK N   1      31.053  23.608  -8.076  0.00  0.00     0.025 A 
HETATM   19 Cl   UNK N   1      32.522  24.336  -5.965  0.00  0.00    -0.083 Cl
HETATM   20  C   UNK N   1      30.111  23.736  -9.092  0.00  0.00     0.002 A 
HETATM   21  C   UNK N   1      29.440  24.942  -9.269  0.00  0.00     0.001 A 
HETATM   22  C   UNK N   1      29.715  26.021  -8.432  0.00  0.00     0.017 A 
ENDBRANCH  14  16
ENDBRANCH  13  14
ENDBRANCH   1   7
BRANCH   2  23
HETATM   23  C   UNK N   1      27.796  24.488  -4.738  0.00  0.00    -0.003 A 
HETATM   24  C   UNK N   1      26.542  24.601  -4.130  0.00  0.00     0.031 A 
HETATM   25  C   UNK N   1      25.394  24.217  -4.815  0.00  0.00     0.088 A 
HETATM   26  N   UNK N   1      25.489  23.733  -6.080  0.00  0.00    -0.375 N 
HETATM   27  C   UNK N   1      26.692  23.618  -6.705  0.00  0.00     0.088 A 
ATOM     28  HN  UNK N   1      24.642  23.449  -6.572  1.00  0.00     0.164 HD
HETATM   29  C   UNK N   1      27.860  24.000  -6.047  0.00  0.00     0.031 A 
ENDBRANCH   2  23
BRANCH   3  30
HETATM   30  C   UNK N   1      29.717  22.700  -3.187  0.00  0.00     0.185 C 
BRANCH  30  31
HETATM   31  C   UNK N   1      30.538  21.964  -4.192  0.00  0.00    -0.037 A 
HETATM   32  C   UNK N   1      29.934  21.533  -5.364  0.00  0.00     0.025 A 
HETATM   33  C   UNK N   1      30.574  20.608  -6.191  0.00  0.00     0.049 A 
HETATM   34  C   UNK N   1      31.842  20.105  -5.824  0.00  0.00     0.032 A 
HETATM   35  C   UNK N   1      32.459  20.556  -4.643  0.00  0.00     0.049 A 
HETATM   36  C   UNK N   1      31.788  21.467  -3.839  0.00  0.00     0.025 A 
BRANCH  33  37
HETATM   37  C   UNK N   1      29.789  20.036  -7.332  0.00  0.00     0.417 C 
HETATM   38  F   UNK N   1      29.577  18.690  -7.079  0.00  0.00    -0.166 F 
HETATM   39  F   UNK N   1      30.480  20.150  -8.524  0.00  0.00    -0.166 F 
HETATM   40  F   UNK N   1      28.564  20.665  -7.445  0.00  0.00    -0.166 F 
ENDBRANCH  33  37
BRANCH  35  41
HETATM   41  C   UNK N   1      33.735  19.954  -4.127  0.00  0.00     0.417 C 
HETATM   42  F   UNK N   1      34.760  20.087  -5.042  0.00  0.00    -0.166 F 
HETATM   43  F   UNK N   1      34.118  20.562  -2.939  0.00  0.00    -0.166 F 
HETATM   44  F   UNK N   1      33.515  18.614  -3.870  0.00  0.00    -0.166 F 
ENDBRANCH  35  41
ENDBRANCH  30  31
ENDBRANCH   3  30
TORSDOF 8
ENDMDL
MODEL 9
REMARK VINA RESULT:      -7.5      2.986      4.884
REMARK  8 active torsions:
REMARK  status: ('A' for Active; 'I' for Inactive)
REMARK    1  A    between atoms: C_5  and  C_7 
REMARK    2  A    between atoms: C_7  and  C_9 
REMARK    3  A    between atoms: C_15  and  C_16 
REMARK    4  A    between atoms: C_17  and  C_37 
REMARK    5  A    between atoms: N_18  and  C_22 
REMARK    6  A    between atoms: C_22  and  C_23 
REMARK    7  A    between atoms: C_25  and  C_33 
REMARK    8  A    between atoms: C_27  and  C_29 
ROOT
HETATM    1  C   UNK N   1      24.481  16.581   5.348  0.00  0.00     0.102 A 
HETATM    2  C   UNK N   1      23.371  15.793   5.127  0.00  0.00     0.089 A 
HETATM    3  N   UNK N   1      23.451  14.787   6.008  0.00  0.00    -0.268 N 
HETATM    4  N   UNK N   1      24.541  14.946   6.741  0.00  0.00    -0.019 NA
HETATM    5  N   UNK N   1      25.198  16.029   6.348  0.00  0.00    -0.280 N 
ATOM      6  HN  UNK N   1      26.079  16.378   6.729  1.00  0.00     0.184 HD
ENDROOT
BRANCH   1   7
HETATM    7  C   UNK N   1      24.865  17.776   4.587  0.00  0.00     0.076 A 
HETATM    8  N   UNK N   1      24.055  18.868   4.622  0.00  0.00    -0.363 N 
HETATM    9  C   UNK N   1      24.319  19.983   3.896  0.00  0.00     0.088 A 
ATOM     10  HN  UNK N   1      23.224  18.849   5.214  1.00  0.00     0.165 HD
HETATM   11  C   UNK N   1      25.434  20.022   3.064  0.00  0.00     0.018 A 
HETATM   12  C   UNK N   1      26.291  18.921   3.013  0.00  0.00     0.019 A 
HETATM   13  C   UNK N   1      26.026  17.793   3.796  0.00  0.00     0.044 A 
BRANCH  13  14
HETATM   14  C   UNK N   1      26.892  16.605   3.701  0.00  0.00     0.196 C 
HETATM   15  O   UNK N   1      28.059  16.718   4.056  0.00  0.00    -0.286 OA
BRANCH  14  16
HETATM   16  C   UNK N   1      26.459  15.337   3.038  0.00  0.00     0.037 A 
HETATM   17  C   UNK N   1      26.628  14.028   3.585  0.00  0.00     0.048 A 
HETATM   18  C   UNK N   1      26.128  12.924   2.892  0.00  0.00     0.025 A 
HETATM   19 Cl   UNK N   1      27.405  13.666   5.119  0.00  0.00    -0.083 Cl
HETATM   20  C   UNK N   1      25.460  13.078   1.681  0.00  0.00     0.002 A 
HETATM   21  C   UNK N   1      25.283  14.348   1.142  0.00  0.00     0.001 A 
HETATM   22  C   UNK N   1      25.778  15.463   1.814  0.00  0.00     0.017 A 
ENDBRANCH  14  16
ENDBRANCH  13  14
ENDBRANCH   1   7
BRANCH   2  23
HETATM   23  C   UNK N   1      22.345  15.916   4.060  0.00  0.00    -0.003 A 
HETATM   24  C   UNK N   1      22.449  15.172   2.881  0.00  0.00     0.031 A 
HETATM   25  C   UNK N   1      21.463  15.264   1.905  0.00  0.00     0.088 A 
HETATM   26  N   UNK N   1      20.391  16.076   2.098  0.00  0.00    -0.375 N 
HETATM   27  C   UNK N   1      20.253  16.806   3.237  0.00  0.00     0.088 A 
ATOM     28  HN  UNK N   1      19.675  16.139   1.374  1.00  0.00     0.164 HD
HETATM   29  C   UNK N   1      21.222  16.732   4.236  0.00  0.00     0.031 A 
ENDBRANCH   2  23
BRANCH   3  30
HETATM   30  C   UNK N   1      22.575  13.627   6.060  0.00  0.00     0.185 C 
BRANCH  30  31
HETATM   31  C   UNK N   1      21.710  13.651   7.275  0.00  0.00    -0.037 A 
HETATM   32  C   UNK N   1      20.791  14.680   7.423  0.00  0.00     0.025 A 
HETATM   33  C   UNK N   1      20.172  14.903   8.654  0.00  0.00     0.049 A 
HETATM   34  C   UNK N   1      20.489  14.077   9.755  0.00  0.00     0.032 A 
HETATM   35  C   UNK N   1      21.410  13.024   9.597  0.00  0.00     0.049 A 
HETATM   36  C   UNK N   1      22.015  12.839   8.363  0.00  0.00     0.025 A 
BRANCH  33  37
HETATM   37  C   UNK N   1      19.345  16.145   8.802  0.00  0.00     0.417 C 
HETATM   38  F   UNK N   1      20.172  17.163   9.248  0.00  0.00    -0.166 F 
HETATM   39  F   UNK N   1      18.334  15.968   9.728  0.00  0.00    -0.166 F 
HETATM   40  F   UNK N   1      18.801  16.515   7.586  0.00  0.00    -0.166 F 
ENDBRANCH  33  37
BRANCH  35  41
HETATM   41  C   UNK N   1      21.895  12.206  10.760  0.00  0.00     0.417 C 
HETATM   42  F   UNK N   1      22.479  11.028  10.338  0.00  0.00    -0.166 F 
HETATM   43  F   UNK N   1      22.824  12.920  11.506  0.00  0.00    -0.166 F 
HETATM   44  F   UNK N   1      20.818  11.922  11.577  0.00  0.00    -0.166 F 
ENDBRANCH  35  41
ENDBRANCH  30  31
ENDBRANCH   3  30
TORSDOF 8
ENDMDL
