REMARK  6 active torsions:
REMARK  status: ('A' for Active; 'I' for Inactive)
REMARK    1  A    between atoms: O_2  and  C_3 
REMARK    2  A    between atoms: C_8  and  N_9 
REMARK       I    between atoms: N_9  and  C_10 
REMARK       I    between atoms: C_10  and  N_12 
REMARK    3  A    between atoms: N_12  and  C_13 
REMARK    4  A    between atoms: N_21  and  C_22 
REMARK    5  A    between atoms: C_22  and  C_23 
REMARK    6  A    between atoms: C_28  and  N_30 
ROOT
HETATM    1  C   UNK N   1       3.657   0.760  -0.080  0.00  0.00     0.049 A 
HETATM    2  C   UNK N   1       4.626  -0.025  -0.745  0.00  0.00     0.030 A 
HETATM    3  C   UNK N   1       4.427  -1.416  -0.911  0.00  0.00     0.005 A 
HETATM    4  C   UNK N   1       3.258  -2.033  -0.422  0.00  0.00     0.031 A 
HETATM    5  C   UNK N   1       2.328  -1.227   0.236  0.00  0.00     0.047 A 
HETATM    6  C   UNK N   1       2.527   0.113   0.400  0.00  0.00     0.019 A 
HETATM    7  C   UNK N   1       1.451   0.624   1.096  0.00  0.00     0.033 A 
HETATM    8  C   UNK N   1       0.620  -0.465   1.337  0.00  0.00     0.092 A 
HETATM    9  N   UNK N   1       1.159  -1.582   0.791  0.00  0.00    -0.352 N 
ENDROOT
BRANCH   1  10
HETATM   10  N   UNK N   1       3.776   2.168   0.091  0.00  0.00    -0.308 N 
HETATM   11  C   UNK N   1       4.906   2.899  -0.062  0.00  0.00     0.325 C 
HETATM   12  N   UNK N   1       4.827   4.251   0.070  0.00  0.00    -0.306 N 
HETATM   13  O   UNK N   1       5.974   2.351  -0.291  0.00  0.00    -0.247 OA
HETATM   14  H   UNK N   1       3.932   4.632   0.224  0.00  0.00     0.171 HD
HETATM   15  H   UNK N   1       2.960   2.656   0.346  0.00  0.00     0.170 HD
BRANCH  12  16
HETATM   16  C   UNK N   1       5.916   5.168   0.008  0.00  0.00     0.071 A 
HETATM   17  C   UNK N   1       7.242   4.723  -0.114  0.00  0.00     0.051 A 
HETATM   18  C   UNK N   1       8.298   5.631  -0.148  0.00  0.00     0.013 A 
HETATM   19  C   UNK N   1       8.044   6.999  -0.061  0.00  0.00     0.022 A 
HETATM   20 Br   UNK N   1      10.086   4.993  -0.303  0.00  0.00    -0.051 Br
HETATM   21  C   UNK N   1       6.731   7.458   0.059  0.00  0.00     0.040 A 
HETATM   22  C   UNK N   1       5.657   6.549   0.096  0.00  0.00     0.095 A 
BRANCH  22  23
HETATM   23  O   UNK N   1       4.377   6.980   0.218  0.00  0.00    -0.354 OA
HETATM   24  C   UNK N   1       4.033   8.310   0.316  0.00  0.00     0.210 C 
ENDBRANCH  22  23
ENDBRANCH  12  16
ENDBRANCH   1  10
BRANCH   9  25
HETATM   25  C   UNK N   1       0.548  -2.910   0.822  0.00  0.00     0.167 C 
BRANCH  25  26
HETATM   26  C   UNK N   1      -0.860  -2.893   0.282  0.00  0.00    -0.035 A 
HETATM   27  C   UNK N   1      -1.708  -3.967   0.555  0.00  0.00     0.026 A 
HETATM   28  C   UNK N   1      -3.036  -3.923   0.120  0.00  0.00     0.090 A 
HETATM   29  N   UNK N   1      -3.500  -2.837  -0.558  0.00  0.00    -0.353 N 
HETATM   30  C   UNK N   1      -2.691  -1.781  -0.841  0.00  0.00     0.099 A 
ATOM     31  HN  UNK N   1      -4.474  -2.816  -0.861  1.00  0.00     0.166 HD
HETATM   32  C   UNK N   1      -1.362  -1.791  -0.426  0.00  0.00     0.056 A 
BRANCH  30  33
HETATM   33  N   UNK N   1      -3.201  -0.668  -1.537  0.00  0.00    -0.385 N 
HETATM   34  H   UNK N   1      -2.705   0.030  -2.023  0.00  0.00     0.157 HD
HETATM   35  H   UNK N   1      -4.181  -0.575  -1.537  0.00  0.00     0.157 HD
ENDBRANCH  30  33
ENDBRANCH  25  26
ENDBRANCH   9  25
TORSDOF 6
