MODEL 1
REMARK VINA RESULT:      -7.1      0.000      0.000
REMARK  8 active torsions:
REMARK  status: ('A' for Active; 'I' for Inactive)
REMARK    1  A    between atoms: C_3  and  O_18 
REMARK    2  A    between atoms: C_6  and  C_7 
REMARK    3  A    between atoms: C_7  and  N_8 
REMARK    4  A    between atoms: N_8  and  C_9 
REMARK    5  A    between atoms: C_9  and  C_10 
REMARK    6  A    between atoms: C_10  and  C_11 
REMARK    7  A    between atoms: O_18  and  C_19 
REMARK    8  A    between atoms: C_22  and  C_26 
REMARK       I    between atoms: C_26  and  N_28 
ROOT
HETATM    1  C   UNK N   1      27.715  16.848   7.371  0.00  0.00     0.012 A 
HETATM    2  C   UNK N   1      27.272  17.098   6.075  0.00  0.00     0.041 A 
HETATM    3  C   UNK N   1      27.287  18.403   5.548  0.00  0.00     0.116 A 
HETATM    4  C   UNK N   1      27.727  19.459   6.359  0.00  0.00     0.150 A 
HETATM    5  C   UNK N   1      28.172  19.206   7.662  0.00  0.00     0.054 A 
HETATM    6  C   UNK N   1      28.171  17.899   8.165  0.00  0.00    -0.038 A 
HETATM    7  F   UNK N   1      27.750  20.726   5.877  0.00  0.00    -0.203 F 
ENDROOT
BRANCH   3   8
HETATM    8  O   UNK N   1      26.875  18.656   4.274  0.00  0.00    -0.291 OA
BRANCH   8   9
HETATM    9  C   UNK N   1      25.632  19.081   3.913  0.00  0.00     0.148 A 
HETATM   10  C   UNK N   1      25.455  20.243   3.146  0.00  0.00     0.057 A 
HETATM   11  C   UNK N   1      24.176  20.657   2.797  0.00  0.00     0.022 A 
HETATM   12  C   UNK N   1      23.069  19.919   3.213  0.00  0.00     0.047 A 
HETATM   13  C   UNK N   1      23.276  18.771   3.993  0.00  0.00     0.107 A 
HETATM   14  N   UNK N   1      24.539  18.384   4.328  0.00  0.00    -0.346 N 
ATOM     15  HN  UNK N   1      24.667  17.552   4.904  1.00  0.00     0.167 HD
BRANCH  12  16
HETATM   16  C   UNK N   1      21.708  20.347   2.829  0.00  0.00     0.250 C 
HETATM   17  O   UNK N   1      21.535  20.985   1.800  0.00  0.00    -0.268 OA
HETATM   18  N   UNK N   1      20.650  20.034   3.600  0.00  0.00    -0.366 N 
HETATM   19  H   UNK N   1      20.695  19.568   4.467  0.00  0.00     0.159 HD
HETATM   20  H   UNK N   1      19.758  20.292   3.272  0.00  0.00     0.159 HD
ENDBRANCH  12  16
ENDBRANCH   8   9
ENDBRANCH   3   8
BRANCH   6  21
HETATM   21  C   UNK N   1      28.676  17.611   9.534  0.00  0.00     0.152 C 
BRANCH  21  22
HETATM   22  N   UNK N   1      30.080  17.962   9.631  0.00  0.00    -0.417 N 
HETATM   23  H   UNK N   1      30.465  18.780  10.104  0.00  0.00     0.153 HD
BRANCH  22  24
HETATM   24  C   UNK N   1      30.837  16.941   8.928  0.00  0.00     0.114 C 
BRANCH  24  25
HETATM   25  C   UNK N   1      31.920  17.623   8.107  0.00  0.00     0.024 C 
BRANCH  25  26
HETATM   26  C   UNK N   1      32.109  17.005   6.722  0.00  0.00    -0.009 C 
HETATM   27  C   UNK N   1      33.427  17.434   6.085  0.00  0.00     0.031 C 
HETATM   28  C   UNK N   1      33.510  16.799   4.697  0.00  0.00     0.168 C 
HETATM   29  O   UNK N   1      32.447  17.271   3.905  0.00  0.00    -0.391 OA
HETATM   30  C   UNK N   1      31.275  16.671   4.403  0.00  0.00     0.168 C 
HETATM   31  C   UNK N   1      30.931  17.259   5.773  0.00  0.00     0.031 C 
ENDBRANCH  25  26
ENDBRANCH  24  25
ENDBRANCH  22  24
ENDBRANCH  21  22
ENDBRANCH   6  21
TORSDOF 8
ENDMDL
MODEL 2
REMARK VINA RESULT:      -7.1      6.956      9.718
REMARK  8 active torsions:
REMARK  status: ('A' for Active; 'I' for Inactive)
REMARK    1  A    between atoms: C_3  and  O_18 
REMARK    2  A    between atoms: C_6  and  C_7 
REMARK    3  A    between atoms: C_7  and  N_8 
REMARK    4  A    between atoms: N_8  and  C_9 
REMARK    5  A    between atoms: C_9  and  C_10 
REMARK    6  A    between atoms: C_10  and  C_11 
REMARK    7  A    between atoms: O_18  and  C_19 
REMARK    8  A    between atoms: C_22  and  C_26 
REMARK       I    between atoms: C_26  and  N_28 
ROOT
HETATM    1  C   UNK N   1      34.390  14.407  11.067  0.00  0.00     0.012 A 
HETATM    2  C   UNK N   1      33.719  14.722   9.888  0.00  0.00     0.041 A 
HETATM    3  C   UNK N   1      33.984  15.925   9.207  0.00  0.00     0.116 A 
HETATM    4  C   UNK N   1      34.915  16.822   9.749  0.00  0.00     0.150 A 
HETATM    5  C   UNK N   1      35.589  16.505  10.934  0.00  0.00     0.054 A 
HETATM    6  C   UNK N   1      35.330  15.294  11.589  0.00  0.00    -0.038 A 
HETATM    7  F   UNK N   1      35.188  17.989   9.114  0.00  0.00    -0.203 F 
ENDROOT
BRANCH   3   8
HETATM    8  O   UNK N   1      33.348  16.232   8.042  0.00  0.00    -0.291 OA
BRANCH   8   9
HETATM    9  C   UNK N   1      32.099  16.767   7.939  0.00  0.00     0.148 A 
HETATM   10  C   UNK N   1      31.311  16.562   6.795  0.00  0.00     0.057 A 
HETATM   11  C   UNK N   1      30.044  17.124   6.714  0.00  0.00     0.022 A 
HETATM   12  C   UNK N   1      29.556  17.895   7.768  0.00  0.00     0.047 A 
HETATM   13  C   UNK N   1      30.372  18.096   8.892  0.00  0.00     0.107 A 
HETATM   14  N   UNK N   1      31.615  17.539   8.950  0.00  0.00    -0.346 N 
ATOM     15  HN  UNK N   1      32.196  17.705   9.772  1.00  0.00     0.167 HD
BRANCH  12  16
HETATM   16  C   UNK N   1      28.201  18.479   7.692  0.00  0.00     0.250 C 
HETATM   17  O   UNK N   1      27.652  18.611   6.609  0.00  0.00    -0.268 OA
HETATM   18  N   UNK N   1      27.559  18.861   8.812  0.00  0.00    -0.366 N 
HETATM   19  H   UNK N   1      27.937  18.838   9.722  0.00  0.00     0.159 HD
HETATM   20  H   UNK N   1      26.636  19.191   8.715  0.00  0.00     0.159 HD
ENDBRANCH  12  16
ENDBRANCH   8   9
ENDBRANCH   3   8
BRANCH   6  21
HETATM   21  C   UNK N   1      36.066  14.927  12.828  0.00  0.00     0.152 C 
BRANCH  21  22
HETATM   22  N   UNK N   1      36.954  13.811  12.568  0.00  0.00    -0.417 N 
HETATM   23  H   UNK N   1      37.623  13.739  11.800  0.00  0.00     0.153 HD
BRANCH  22  24
HETATM   24  C   UNK N   1      36.717  12.813  13.596  0.00  0.00     0.114 C 
BRANCH  24  25
HETATM   25  C   UNK N   1      35.878  13.444  14.696  0.00  0.00     0.024 C 
BRANCH  25  26
HETATM   26  C   UNK N   1      36.031  12.749  16.049  0.00  0.00    -0.009 C 
HETATM   27  C   UNK N   1      36.005  11.230  15.911  0.00  0.00     0.031 C 
HETATM   28  C   UNK N   1      36.128  10.628  17.311  0.00  0.00     0.168 C 
HETATM   29  O   UNK N   1      35.029  11.033  18.091  0.00  0.00    -0.391 OA
HETATM   30  C   UNK N   1      35.216  12.400  18.372  0.00  0.00     0.168 C 
HETATM   31  C   UNK N   1      35.019  13.224  17.099  0.00  0.00     0.031 C 
ENDBRANCH  25  26
ENDBRANCH  24  25
ENDBRANCH  22  24
ENDBRANCH  21  22
ENDBRANCH   6  21
TORSDOF 8
ENDMDL
MODEL 3
REMARK VINA RESULT:      -6.9      4.199     10.128
REMARK  8 active torsions:
REMARK  status: ('A' for Active; 'I' for Inactive)
REMARK    1  A    between atoms: C_3  and  O_18 
REMARK    2  A    between atoms: C_6  and  C_7 
REMARK    3  A    between atoms: C_7  and  N_8 
REMARK    4  A    between atoms: N_8  and  C_9 
REMARK    5  A    between atoms: C_9  and  C_10 
REMARK    6  A    between atoms: C_10  and  C_11 
REMARK    7  A    between atoms: O_18  and  C_19 
REMARK    8  A    between atoms: C_22  and  C_26 
REMARK       I    between atoms: C_26  and  N_28 
ROOT
HETATM    1  C   UNK N   1      33.489  16.878   5.365  0.00  0.00     0.012 A 
HETATM    2  C   UNK N   1      34.169  17.103   6.560  0.00  0.00     0.041 A 
HETATM    3  C   UNK N   1      33.472  17.458   7.729  0.00  0.00     0.116 A 
HETATM    4  C   UNK N   1      32.079  17.615   7.671  0.00  0.00     0.150 A 
HETATM    5  C   UNK N   1      31.397  17.389   6.469  0.00  0.00     0.054 A 
HETATM    6  C   UNK N   1      32.103  17.015   5.318  0.00  0.00    -0.038 A 
HETATM    7  F   UNK N   1      31.383  17.957   8.782  0.00  0.00    -0.203 F 
ENDROOT
BRANCH   3   8
HETATM    8  O   UNK N   1      34.125  17.659   8.908  0.00  0.00    -0.291 OA
BRANCH   8   9
HETATM    9  C   UNK N   1      34.437  16.692   9.815  0.00  0.00     0.148 A 
HETATM   10  C   UNK N   1      35.575  16.799  10.631  0.00  0.00     0.057 A 
HETATM   11  C   UNK N   1      35.873  15.796  11.543  0.00  0.00     0.022 A 
HETATM   12  C   UNK N   1      35.042  14.680  11.646  0.00  0.00     0.047 A 
HETATM   13  C   UNK N   1      33.921  14.593  10.808  0.00  0.00     0.107 A 
HETATM   14  N   UNK N   1      33.649  15.587   9.915  0.00  0.00    -0.346 N 
ATOM     15  HN  UNK N   1      32.834  15.500   9.307  1.00  0.00     0.167 HD
BRANCH  12  16
HETATM   16  C   UNK N   1      35.347  13.620  12.629  0.00  0.00     0.250 C 
HETATM   17  O   UNK N   1      36.253  13.774  13.435  0.00  0.00    -0.268 OA
HETATM   18  N   UNK N   1      34.627  12.482  12.651  0.00  0.00    -0.366 N 
HETATM   19  H   UNK N   1      33.912  12.248  12.014  0.00  0.00     0.159 HD
HETATM   20  H   UNK N   1      34.830  11.831  13.361  0.00  0.00     0.159 HD
ENDBRANCH  12  16
ENDBRANCH   8   9
ENDBRANCH   3   8
BRANCH   6  21
HETATM   21  C   UNK N   1      31.387  16.735   4.045  0.00  0.00     0.152 C 
BRANCH  21  22
HETATM   22  N   UNK N   1      30.280  17.657   3.883  0.00  0.00    -0.417 N 
HETATM   23  H   UNK N   1      30.326  18.674   3.961  0.00  0.00     0.153 HD
BRANCH  22  24
HETATM   24  C   UNK N   1      29.093  16.871   3.594  0.00  0.00     0.114 C 
BRANCH  24  25
HETATM   25  C   UNK N   1      27.868  17.721   3.892  0.00  0.00     0.024 C 
BRANCH  25  26
HETATM   26  C   UNK N   1      28.102  18.758   4.991  0.00  0.00    -0.009 C 
HETATM   27  C   UNK N   1      27.767  18.204   6.373  0.00  0.00     0.031 C 
HETATM   28  C   UNK N   1      27.997  19.317   7.395  0.00  0.00     0.168 C 
HETATM   29  O   UNK N   1      27.135  20.393   7.114  0.00  0.00    -0.391 OA
HETATM   30  C   UNK N   1      27.620  21.004   5.942  0.00  0.00     0.168 C 
HETATM   31  C   UNK N   1      27.381  20.088   4.741  0.00  0.00     0.031 C 
ENDBRANCH  25  26
ENDBRANCH  24  25
ENDBRANCH  22  24
ENDBRANCH  21  22
ENDBRANCH   6  21
TORSDOF 8
ENDMDL
MODEL 4
REMARK VINA RESULT:      -6.9      4.112     10.384
REMARK  8 active torsions:
REMARK  status: ('A' for Active; 'I' for Inactive)
REMARK    1  A    between atoms: C_3  and  O_18 
REMARK    2  A    between atoms: C_6  and  C_7 
REMARK    3  A    between atoms: C_7  and  N_8 
REMARK    4  A    between atoms: N_8  and  C_9 
REMARK    5  A    between atoms: C_9  and  C_10 
REMARK    6  A    between atoms: C_10  and  C_11 
REMARK    7  A    between atoms: O_18  and  C_19 
REMARK    8  A    between atoms: C_22  and  C_26 
REMARK       I    between atoms: C_26  and  N_28 
ROOT
HETATM    1  C   UNK N   1      30.464  17.277   6.949  0.00  0.00     0.012 A 
HETATM    2  C   UNK N   1      31.453  17.493   7.905  0.00  0.00     0.041 A 
HETATM    3  C   UNK N   1      32.811  17.535   7.540  0.00  0.00     0.116 A 
HETATM    4  C   UNK N   1      33.162  17.324   6.199  0.00  0.00     0.150 A 
HETATM    5  C   UNK N   1      32.167  17.107   5.238  0.00  0.00     0.054 A 
HETATM    6  C   UNK N   1      30.817  17.089   5.614  0.00  0.00    -0.038 A 
HETATM    7  F   UNK N   1      34.463  17.358   5.820  0.00  0.00    -0.203 F 
ENDROOT
BRANCH   3   8
HETATM    8  O   UNK N   1      33.785  17.767   8.465  0.00  0.00    -0.291 OA
BRANCH   8   9
HETATM    9  C   UNK N   1      34.215  16.876   9.402  0.00  0.00     0.148 A 
HETATM   10  C   UNK N   1      33.781  15.541   9.390  0.00  0.00     0.057 A 
HETATM   11  C   UNK N   1      34.230  14.656  10.361  0.00  0.00     0.022 A 
HETATM   12  C   UNK N   1      35.110  15.096  11.349  0.00  0.00     0.047 A 
HETATM   13  C   UNK N   1      35.515  16.439  11.345  0.00  0.00     0.107 A 
HETATM   14  N   UNK N   1      35.058  17.293  10.385  0.00  0.00    -0.346 N 
ATOM     15  HN  UNK N   1      35.356  18.269  10.406  1.00  0.00     0.167 HD
BRANCH  12  16
HETATM   16  C   UNK N   1      35.604  14.152  12.373  0.00  0.00     0.250 C 
HETATM   17  O   UNK N   1      34.823  13.638  13.160  0.00  0.00    -0.268 OA
HETATM   18  N   UNK N   1      36.913  13.844  12.443  0.00  0.00    -0.366 N 
HETATM   19  H   UNK N   1      37.622  14.241  11.886  0.00  0.00     0.159 HD
HETATM   20  H   UNK N   1      37.185  13.167  13.104  0.00  0.00     0.159 HD
ENDBRANCH  12  16
ENDBRANCH   8   9
ENDBRANCH   3   8
BRANCH   6  21
HETATM   21  C   UNK N   1      29.748  16.897   4.598  0.00  0.00     0.152 C 
BRANCH  21  22
HETATM   22  N   UNK N   1      29.274  18.183   4.125  0.00  0.00    -0.417 N 
HETATM   23  H   UNK N   1      29.830  18.890   3.641  0.00  0.00     0.153 HD
BRANCH  22  24
HETATM   24  C   UNK N   1      27.867  18.285   4.468  0.00  0.00     0.114 C 
BRANCH  24  25
HETATM   25  C   UNK N   1      27.422  19.724   4.258  0.00  0.00     0.024 C 
BRANCH  25  26
HETATM   26  C   UNK N   1      25.903  19.893   4.243  0.00  0.00    -0.009 C 
HETATM   27  C   UNK N   1      25.184  18.587   4.568  0.00  0.00     0.031 C 
HETATM   28  C   UNK N   1      23.679  18.846   4.495  0.00  0.00     0.168 C 
HETATM   29  O   UNK N   1      23.338  19.240   3.188  0.00  0.00    -0.391 OA
HETATM   30  C   UNK N   1      23.840  20.543   3.015  0.00  0.00     0.168 C 
HETATM   31  C   UNK N   1      25.367  20.506   2.943  0.00  0.00     0.031 C 
ENDBRANCH  25  26
ENDBRANCH  24  25
ENDBRANCH  22  24
ENDBRANCH  21  22
ENDBRANCH   6  21
TORSDOF 8
ENDMDL
MODEL 5
REMARK VINA RESULT:      -6.8      7.437     10.435
REMARK  8 active torsions:
REMARK  status: ('A' for Active; 'I' for Inactive)
REMARK    1  A    between atoms: C_3  and  O_18 
REMARK    2  A    between atoms: C_6  and  C_7 
REMARK    3  A    between atoms: C_7  and  N_8 
REMARK    4  A    between atoms: N_8  and  C_9 
REMARK    5  A    between atoms: C_9  and  C_10 
REMARK    6  A    between atoms: C_10  and  C_11 
REMARK    7  A    between atoms: O_18  and  C_19 
REMARK    8  A    between atoms: C_22  and  C_26 
REMARK       I    between atoms: C_26  and  N_28 
ROOT
HETATM    1  C   UNK N   1      35.562  15.578  11.850  0.00  0.00     0.012 A 
HETATM    2  C   UNK N   1      35.133  16.293  10.734  0.00  0.00     0.041 A 
HETATM    3  C   UNK N   1      34.541  15.635   9.641  0.00  0.00     0.116 A 
HETATM    4  C   UNK N   1      34.415  14.239   9.674  0.00  0.00     0.150 A 
HETATM    5  C   UNK N   1      34.847  13.521  10.796  0.00  0.00     0.054 A 
HETATM    6  C   UNK N   1      35.415  14.192  11.886  0.00  0.00    -0.038 A 
HETATM    7  F   UNK N   1      33.850  13.579   8.633  0.00  0.00    -0.203 F 
ENDROOT
BRANCH   3   8
HETATM    8  O   UNK N   1      34.099  16.327   8.554  0.00  0.00    -0.291 OA
BRANCH   8   9
HETATM    9  C   UNK N   1      32.805  16.671   8.306  0.00  0.00     0.148 A 
HETATM   10  C   UNK N   1      32.032  15.969   7.367  0.00  0.00     0.057 A 
HETATM   11  C   UNK N   1      30.716  16.344   7.130  0.00  0.00     0.022 A 
HETATM   12  C   UNK N   1      30.164  17.420   7.823  0.00  0.00     0.047 A 
HETATM   13  C   UNK N   1      30.965  18.113   8.745  0.00  0.00     0.107 A 
HETATM   14  N   UNK N   1      32.256  17.731   8.959  0.00  0.00    -0.346 N 
ATOM     15  HN  UNK N   1      32.824  18.254   9.626  1.00  0.00     0.167 HD
BRANCH  12  16
HETATM   16  C   UNK N   1      28.759  17.810   7.586  0.00  0.00     0.250 C 
HETATM   17  O   UNK N   1      28.410  18.199   6.481  0.00  0.00    -0.268 OA
HETATM   18  N   UNK N   1      27.852  17.733   8.579  0.00  0.00    -0.366 N 
HETATM   19  H   UNK N   1      28.049  17.479   9.510  0.00  0.00     0.159 HD
HETATM   20  H   UNK N   1      26.918  17.949   8.356  0.00  0.00     0.159 HD
ENDBRANCH  12  16
ENDBRANCH   8   9
ENDBRANCH   3   8
BRANCH   6  21
HETATM   21  C   UNK N   1      35.843  13.446  13.100  0.00  0.00     0.152 C 
BRANCH  21  22
HETATM   22  N   UNK N   1      36.748  14.258  13.889  0.00  0.00    -0.417 N 
HETATM   23  H   UNK N   1      37.378  14.979  13.534  0.00  0.00     0.153 HD
BRANCH  22  24
HETATM   24  C   UNK N   1      36.600  13.857  15.277  0.00  0.00     0.114 C 
BRANCH  24  25
HETATM   25  C   UNK N   1      35.191  13.320  15.475  0.00  0.00     0.024 C 
BRANCH  25  26
HETATM   26  C   UNK N   1      34.962  12.715  16.860  0.00  0.00    -0.009 C 
HETATM   27  C   UNK N   1      35.257  13.718  17.972  0.00  0.00     0.031 C 
HETATM   28  C   UNK N   1      35.035  13.015  19.311  0.00  0.00     0.168 C 
HETATM   29  O   UNK N   1      35.929  11.934  19.424  0.00  0.00    -0.391 OA
HETATM   30  C   UNK N   1      35.482  10.945  18.528  0.00  0.00     0.168 C 
HETATM   31  C   UNK N   1      35.720  11.402  17.088  0.00  0.00     0.031 C 
ENDBRANCH  25  26
ENDBRANCH  24  25
ENDBRANCH  22  24
ENDBRANCH  21  22
ENDBRANCH   6  21
TORSDOF 8
ENDMDL
MODEL 6
REMARK VINA RESULT:      -6.7      8.094     11.613
REMARK  8 active torsions:
REMARK  status: ('A' for Active; 'I' for Inactive)
REMARK    1  A    between atoms: C_3  and  O_18 
REMARK    2  A    between atoms: C_6  and  C_7 
REMARK    3  A    between atoms: C_7  and  N_8 
REMARK    4  A    between atoms: N_8  and  C_9 
REMARK    5  A    between atoms: C_9  and  C_10 
REMARK    6  A    between atoms: C_10  and  C_11 
REMARK    7  A    between atoms: O_18  and  C_19 
REMARK    8  A    between atoms: C_22  and  C_26 
REMARK       I    between atoms: C_26  and  N_28 
ROOT
HETATM    1  C   UNK N   1      36.085  14.233  12.978  0.00  0.00     0.012 A 
HETATM    2  C   UNK N   1      35.729  15.410  12.323  0.00  0.00     0.041 A 
HETATM    3  C   UNK N   1      36.031  15.596  10.962  0.00  0.00     0.116 A 
HETATM    4  C   UNK N   1      36.727  14.591  10.275  0.00  0.00     0.150 A 
HETATM    5  C   UNK N   1      37.084  13.408  10.934  0.00  0.00     0.054 A 
HETATM    6  C   UNK N   1      36.758  13.228  12.285  0.00  0.00    -0.038 A 
HETATM    7  F   UNK N   1      37.033  14.745   8.963  0.00  0.00    -0.203 F 
ENDROOT
BRANCH   3   8
HETATM    8  O   UNK N   1      35.669  16.735  10.307  0.00  0.00    -0.291 OA
BRANCH   8   9
HETATM    9  C   UNK N   1      34.600  16.862   9.472  0.00  0.00     0.148 A 
HETATM   10  C   UNK N   1      34.608  17.785   8.415  0.00  0.00     0.057 A 
HETATM   11  C   UNK N   1      33.502  17.898   7.582  0.00  0.00     0.022 A 
HETATM   12  C   UNK N   1      32.383  17.096   7.801  0.00  0.00     0.047 A 
HETATM   13  C   UNK N   1      32.397  16.194   8.875  0.00  0.00     0.107 A 
HETATM   14  N   UNK N   1      33.491  16.102   9.683  0.00  0.00    -0.346 N 
ATOM     15  HN  UNK N   1      33.477  15.447  10.465  1.00  0.00     0.167 HD
BRANCH  12  16
HETATM   16  C   UNK N   1      31.212  17.202   6.906  0.00  0.00     0.250 C 
HETATM   17  O   UNK N   1      31.372  17.380   5.707  0.00  0.00    -0.268 OA
HETATM   18  N   UNK N   1      29.963  17.095   7.399  0.00  0.00    -0.366 N 
HETATM   19  H   UNK N   1      29.735  16.999   8.353  0.00  0.00     0.159 HD
HETATM   20  H   UNK N   1      29.219  17.115   6.756  0.00  0.00     0.159 HD
ENDBRANCH  12  16
ENDBRANCH   8   9
ENDBRANCH   3   8
BRANCH   6  21
HETATM   21  C   UNK N   1      37.098  11.962  12.987  0.00  0.00     0.152 C 
BRANCH  21  22
HETATM   22  N   UNK N   1      35.948  11.480  13.728  0.00  0.00    -0.417 N 
HETATM   23  H   UNK N   1      34.981  11.469  13.402  0.00  0.00     0.153 HD
BRANCH  22  24
HETATM   24  C   UNK N   1      36.423  11.018  15.021  0.00  0.00     0.114 C 
BRANCH  24  25
HETATM   25  C   UNK N   1      35.283  11.129  16.021  0.00  0.00     0.024 C 
BRANCH  25  26
HETATM   26  C   UNK N   1      35.603  12.039  17.207  0.00  0.00    -0.009 C 
HETATM   27  C   UNK N   1      35.219  11.394  18.536  0.00  0.00     0.031 C 
HETATM   28  C   UNK N   1      35.543  12.386  19.652  0.00  0.00     0.168 C 
HETATM   29  O   UNK N   1      34.778  13.554  19.474  0.00  0.00    -0.391 OA
HETATM   30  C   UNK N   1      35.317  14.223  18.359  0.00  0.00     0.168 C 
HETATM   31  C   UNK N   1      35.001  13.443  17.082  0.00  0.00     0.031 C 
ENDBRANCH  25  26
ENDBRANCH  24  25
ENDBRANCH  22  24
ENDBRANCH  21  22
ENDBRANCH   6  21
TORSDOF 8
ENDMDL
MODEL 7
REMARK VINA RESULT:      -6.7      4.010      5.077
REMARK  8 active torsions:
REMARK  status: ('A' for Active; 'I' for Inactive)
REMARK    1  A    between atoms: C_3  and  O_18 
REMARK    2  A    between atoms: C_6  and  C_7 
REMARK    3  A    between atoms: C_7  and  N_8 
REMARK    4  A    between atoms: N_8  and  C_9 
REMARK    5  A    between atoms: C_9  and  C_10 
REMARK    6  A    between atoms: C_10  and  C_11 
REMARK    7  A    between atoms: O_18  and  C_19 
REMARK    8  A    between atoms: C_22  and  C_26 
REMARK       I    between atoms: C_26  and  N_28 
ROOT
HETATM    1  C   UNK N   1      31.585  17.015   6.747  0.00  0.00     0.012 A 
HETATM    2  C   UNK N   1      30.225  16.926   6.459  0.00  0.00     0.041 A 
HETATM    3  C   UNK N   1      29.269  17.524   7.301  0.00  0.00     0.116 A 
HETATM    4  C   UNK N   1      29.702  18.187   8.459  0.00  0.00     0.150 A 
HETATM    5  C   UNK N   1      31.069  18.275   8.748  0.00  0.00     0.054 A 
HETATM    6  C   UNK N   1      32.010  17.694   7.888  0.00  0.00    -0.038 A 
HETATM    7  F   UNK N   1      28.803  18.770   9.289  0.00  0.00    -0.203 F 
ENDROOT
BRANCH   3   8
HETATM    8  O   UNK N   1      27.938  17.461   7.017  0.00  0.00    -0.291 OA
BRANCH   8   9
HETATM    9  C   UNK N   1      27.298  18.190   6.060  0.00  0.00     0.148 A 
HETATM   10  C   UNK N   1      27.835  19.396   5.584  0.00  0.00     0.057 A 
HETATM   11  C   UNK N   1      27.158  20.123   4.613  0.00  0.00     0.022 A 
HETATM   12  C   UNK N   1      25.942  19.654   4.115  0.00  0.00     0.047 A 
HETATM   13  C   UNK N   1      25.423  18.453   4.621  0.00  0.00     0.107 A 
HETATM   14  N   UNK N   1      26.101  17.758   5.578  0.00  0.00    -0.346 N 
ATOM     15  HN  UNK N   1      25.701  16.892   5.940  1.00  0.00     0.167 HD
BRANCH  12  16
HETATM   16  C   UNK N   1      25.229  20.415   3.069  0.00  0.00     0.250 C 
HETATM   17  O   UNK N   1      25.860  21.017   2.212  0.00  0.00    -0.268 OA
HETATM   18  N   UNK N   1      23.883  20.446   3.045  0.00  0.00    -0.366 N 
HETATM   19  H   UNK N   1      23.292  20.034   3.717  0.00  0.00     0.159 HD
HETATM   20  H   UNK N   1      23.454  20.920   2.296  0.00  0.00     0.159 HD
ENDBRANCH  12  16
ENDBRANCH   8   9
ENDBRANCH   3   8
BRANCH   6  21
HETATM   21  C   UNK N   1      33.467  17.813   8.163  0.00  0.00     0.152 C 
BRANCH  21  22
HETATM   22  N   UNK N   1      33.772  17.272   9.473  0.00  0.00    -0.417 N 
HETATM   23  H   UNK N   1      33.899  17.808  10.333  0.00  0.00     0.153 HD
BRANCH  22  24
HETATM   24  C   UNK N   1      33.867  15.828   9.340  0.00  0.00     0.114 C 
BRANCH  24  25
HETATM   25  C   UNK N   1      35.335  15.436   9.386  0.00  0.00     0.024 C 
BRANCH  25  26
HETATM   26  C   UNK N   1      35.628  14.301  10.368  0.00  0.00    -0.009 C 
HETATM   27  C   UNK N   1      34.972  14.542  11.724  0.00  0.00     0.031 C 
HETATM   28  C   UNK N   1      35.349  13.380  12.643  0.00  0.00     0.168 C 
HETATM   29  O   UNK N   1      36.746  13.353  12.812  0.00  0.00    -0.391 OA
HETATM   30  C   UNK N   1      37.291  12.914  11.591  0.00  0.00     0.168 C 
HETATM   31  C   UNK N   1      37.123  13.999  10.526  0.00  0.00     0.031 C 
ENDBRANCH  25  26
ENDBRANCH  24  25
ENDBRANCH  22  24
ENDBRANCH  21  22
ENDBRANCH   6  21
TORSDOF 8
ENDMDL
MODEL 8
REMARK VINA RESULT:      -6.4     12.026     15.994
REMARK  8 active torsions:
REMARK  status: ('A' for Active; 'I' for Inactive)
REMARK    1  A    between atoms: C_3  and  O_18 
REMARK    2  A    between atoms: C_6  and  C_7 
REMARK    3  A    between atoms: C_7  and  N_8 
REMARK    4  A    between atoms: N_8  and  C_9 
REMARK    5  A    between atoms: C_9  and  C_10 
REMARK    6  A    between atoms: C_10  and  C_11 
REMARK    7  A    between atoms: O_18  and  C_19 
REMARK    8  A    between atoms: C_22  and  C_26 
REMARK       I    between atoms: C_26  and  N_28 
ROOT
HETATM    1  C   UNK N   1      35.100  12.464  17.558  0.00  0.00     0.012 A 
HETATM    2  C   UNK N   1      35.624  13.190  16.491  0.00  0.00     0.041 A 
HETATM    3  C   UNK N   1      36.463  12.574  15.545  0.00  0.00     0.116 A 
HETATM    4  C   UNK N   1      36.794  11.221  15.707  0.00  0.00     0.150 A 
HETATM    5  C   UNK N   1      36.267  10.493  16.780  0.00  0.00     0.054 A 
HETATM    6  C   UNK N   1      35.415  11.115  17.703  0.00  0.00    -0.038 A 
HETATM    7  F   UNK N   1      37.602  10.603  14.811  0.00  0.00    -0.203 F 
ENDROOT
BRANCH   3   8
HETATM    8  O   UNK N   1      36.964  13.269  14.485  0.00  0.00    -0.291 OA
BRANCH   8   9
HETATM    9  C   UNK N   1      36.239  13.732  13.428  0.00  0.00     0.148 A 
HETATM   10  C   UNK N   1      35.389  12.883  12.701  0.00  0.00     0.057 A 
HETATM   11  C   UNK N   1      34.667  13.380  11.624  0.00  0.00     0.022 A 
HETATM   12  C   UNK N   1      34.789  14.721  11.264  0.00  0.00     0.047 A 
HETATM   13  C   UNK N   1      35.657  15.542  11.999  0.00  0.00     0.107 A 
HETATM   14  N   UNK N   1      36.361  15.034  13.050  0.00  0.00    -0.346 N 
ATOM     15  HN  UNK N   1      36.995  15.644  13.565  1.00  0.00     0.167 HD
BRANCH  12  16
HETATM   16  C   UNK N   1      34.007  15.256  10.131  0.00  0.00     0.250 C 
HETATM   17  O   UNK N   1      34.569  15.869   9.234  0.00  0.00    -0.268 OA
HETATM   18  N   UNK N   1      32.675  15.069  10.070  0.00  0.00    -0.366 N 
HETATM   19  H   UNK N   1      32.130  14.632  10.765  0.00  0.00     0.159 HD
HETATM   20  H   UNK N   1      32.208  15.394   9.267  0.00  0.00     0.159 HD
ENDBRANCH  12  16
ENDBRANCH   8   9
ENDBRANCH   3   8
BRANCH   6  21
HETATM   21  C   UNK N   1      34.818  10.344  18.826  0.00  0.00     0.152 C 
BRANCH  21  22
HETATM   22  N   UNK N   1      34.429   9.023  18.372  0.00  0.00    -0.417 N 
HETATM   23  H   UNK N   1      34.453   8.685  17.409  0.00  0.00     0.153 HD
BRANCH  22  24
HETATM   24  C   UNK N   1      33.994   8.270  19.535  0.00  0.00     0.114 C 
BRANCH  24  25
HETATM   25  C   UNK N   1      32.818   8.997  20.169  0.00  0.00     0.024 C 
BRANCH  25  26
HETATM   26  C   UNK N   1      32.912   9.088  21.692  0.00  0.00    -0.009 C 
HETATM   27  C   UNK N   1      31.887   8.189  22.377  0.00  0.00     0.031 C 
HETATM   28  C   UNK N   1      32.033   8.373  23.887  0.00  0.00     0.168 C 
HETATM   29  O   UNK N   1      31.759   9.712  24.222  0.00  0.00    -0.391 OA
HETATM   30  C   UNK N   1      32.846  10.475  23.755  0.00  0.00     0.168 C 
HETATM   31  C   UNK N   1      32.829  10.523  22.226  0.00  0.00     0.031 C 
ENDBRANCH  25  26
ENDBRANCH  24  25
ENDBRANCH  22  24
ENDBRANCH  21  22
ENDBRANCH   6  21
TORSDOF 8
ENDMDL
MODEL 9
REMARK VINA RESULT:      -6.4     11.059     13.634
REMARK  8 active torsions:
REMARK  status: ('A' for Active; 'I' for Inactive)
REMARK    1  A    between atoms: C_3  and  O_18 
REMARK    2  A    between atoms: C_6  and  C_7 
REMARK    3  A    between atoms: C_7  and  N_8 
REMARK    4  A    between atoms: N_8  and  C_9 
REMARK    5  A    between atoms: C_9  and  C_10 
REMARK    6  A    between atoms: C_10  and  C_11 
REMARK    7  A    between atoms: O_18  and  C_19 
REMARK    8  A    between atoms: C_22  and  C_26 
REMARK       I    between atoms: C_26  and  N_28 
ROOT
HETATM    1  C   UNK N   1      27.975  22.927  -9.013  0.00  0.00     0.012 A 
HETATM    2  C   UNK N   1      27.120  23.860  -8.431  0.00  0.00     0.041 A 
HETATM    3  C   UNK N   1      26.054  23.448  -7.612  0.00  0.00     0.116 A 
HETATM    4  C   UNK N   1      25.841  22.076  -7.411  0.00  0.00     0.150 A 
HETATM    5  C   UNK N   1      26.700  21.139  -7.997  0.00  0.00     0.054 A 
HETATM    6  C   UNK N   1      27.771  21.566  -8.793  0.00  0.00    -0.038 A 
HETATM    7  F   UNK N   1      24.820  21.650  -6.628  0.00  0.00    -0.203 F 
ENDROOT
BRANCH   3   8
HETATM    8  O   UNK N   1      25.225  24.353  -7.021  0.00  0.00    -0.291 OA
BRANCH   8   9
HETATM    9  C   UNK N   1      25.615  25.360  -6.190  0.00  0.00     0.148 A 
HETATM   10  C   UNK N   1      25.655  26.693  -6.631  0.00  0.00     0.057 A 
HETATM   11  C   UNK N   1      26.063  27.699  -5.765  0.00  0.00     0.022 A 
HETATM   12  C   UNK N   1      26.437  27.383  -4.459  0.00  0.00     0.047 A 
HETATM   13  C   UNK N   1      26.402  26.041  -4.051  0.00  0.00     0.107 A 
HETATM   14  N   UNK N   1      26.003  25.068  -4.919  0.00  0.00    -0.346 N 
ATOM     15  HN  UNK N   1      25.995  24.097  -4.606  1.00  0.00     0.167 HD
BRANCH  12  16
HETATM   16  C   UNK N   1      26.854  28.453  -3.530  0.00  0.00     0.250 C 
HETATM   17  O   UNK N   1      27.945  28.397  -2.981  0.00  0.00    -0.268 OA
HETATM   18  N   UNK N   1      26.043  29.501  -3.286  0.00  0.00    -0.366 N 
HETATM   19  H   UNK N   1      25.131  29.609  -3.643  0.00  0.00     0.159 HD
HETATM   20  H   UNK N   1      26.389  30.216  -2.705  0.00  0.00     0.159 HD
ENDBRANCH  12  16
ENDBRANCH   8   9
ENDBRANCH   3   8
BRANCH   6  21
HETATM   21  C   UNK N   1      28.714  20.583  -9.390  0.00  0.00     0.152 C 
BRANCH  21  22
HETATM   22  N   UNK N   1      29.297  19.758  -8.350  0.00  0.00    -0.417 N 
HETATM   23  H   UNK N   1      28.983  18.826  -8.073  0.00  0.00     0.153 HD
BRANCH  22  24
HETATM   24  C   UNK N   1      30.405  20.497  -7.773  0.00  0.00     0.114 C 
BRANCH  24  25
HETATM   25  C   UNK N   1      30.511  20.135  -6.300  0.00  0.00     0.024 C 
BRANCH  25  26
HETATM   26  C   UNK N   1      30.531  21.354  -5.376  0.00  0.00    -0.009 C 
HETATM   27  C   UNK N   1      30.621  20.951  -3.908  0.00  0.00     0.031 C 
HETATM   28  C   UNK N   1      30.600  22.227  -3.066  0.00  0.00     0.168 C 
HETATM   29  O   UNK N   1      29.386  22.905  -3.279  0.00  0.00    -0.391 OA
HETATM   30  C   UNK N   1      29.446  23.444  -4.578  0.00  0.00     0.168 C 
HETATM   31  C   UNK N   1      29.364  22.320  -5.612  0.00  0.00     0.031 C 
ENDBRANCH  25  26
ENDBRANCH  24  25
ENDBRANCH  22  24
ENDBRANCH  21  22
ENDBRANCH   6  21
TORSDOF 8
ENDMDL
