MODEL 1
REMARK VINA RESULT:      -3.9      0.000      0.000
REMARK  7 active torsions:
REMARK  status: ('A' for Active; 'I' for Inactive)
REMARK    1  A    between atoms: C_1  and  C_2 
REMARK    2  A    between atoms: C_1  and  C_3 
REMARK    3  A    between atoms: C_2  and  C_4 
REMARK    4  A    between atoms: C_3  and  C_5 
REMARK    5  A    between atoms: C_4  and  C_6 
REMARK    6  A    between atoms: C_5  and  C_7 
REMARK    7  A    between atoms: C_7  and  O_9 
ROOT
HETATM    1  C   UNK N   1      21.100  12.607  10.769  0.00  0.00     0.000 C 
ENDROOT
BRANCH   1   2
HETATM    2  C   UNK N   1      21.335  13.439   9.532  0.00  0.00     0.000 C 
BRANCH   2   3
HETATM    3  C   UNK N   1      20.228  14.469   9.488  0.00  0.00    -0.000 C 
BRANCH   3   4
HETATM    4  C   UNK N   1      20.667  15.702   8.737  0.00  0.00    -0.005 C 
HETATM    5  C   UNK N   1      19.546  16.718   8.791  0.00  0.00     0.005 C 
ENDBRANCH   3   4
ENDBRANCH   2   3
ENDBRANCH   1   2
BRANCH   1   6
HETATM    6  C   UNK N   1      22.396  12.135  11.380  0.00  0.00     0.002 C 
BRANCH   6   7
HETATM    7  C   UNK N   1      23.311  11.762  10.237  0.00  0.00     0.026 C 
BRANCH   7   8
HETATM    8  C   UNK N   1      24.705  12.303  10.467  0.00  0.00     0.164 C 
BRANCH   8   9
HETATM    9  O   UNK N   1      24.966  12.316  11.828  0.00  0.00    -0.401 OA
HETATM   10  H   UNK N   1      25.883  12.345  12.146  0.00  0.00     0.209 HD
ENDBRANCH   8   9
ENDBRANCH   7   8
ENDBRANCH   6   7
ENDBRANCH   1   6
TORSDOF 7
ENDMDL
MODEL 2
REMARK VINA RESULT:      -3.8      9.375     11.322
REMARK  7 active torsions:
REMARK  status: ('A' for Active; 'I' for Inactive)
REMARK    1  A    between atoms: C_1  and  C_2 
REMARK    2  A    between atoms: C_1  and  C_3 
REMARK    3  A    between atoms: C_2  and  C_4 
REMARK    4  A    between atoms: C_3  and  C_5 
REMARK    5  A    between atoms: C_4  and  C_6 
REMARK    6  A    between atoms: C_5  and  C_7 
REMARK    7  A    between atoms: C_7  and  O_9 
ROOT
HETATM    1  C   UNK N   1      31.943  17.341   8.295  0.00  0.00     0.000 C 
ENDROOT
BRANCH   1   2
HETATM    2  C   UNK N   1      33.214  18.106   8.016  0.00  0.00     0.000 C 
BRANCH   2   3
HETATM    3  C   UNK N   1      33.692  17.665   6.650  0.00  0.00    -0.000 C 
BRANCH   3   4
HETATM    4  C   UNK N   1      32.534  17.228   5.786  0.00  0.00    -0.005 C 
HETATM    5  C   UNK N   1      32.859  17.564   4.347  0.00  0.00     0.005 C 
ENDBRANCH   3   4
ENDBRANCH   2   3
ENDBRANCH   1   2
BRANCH   1   6
HETATM    6  C   UNK N   1      30.860  18.238   8.842  0.00  0.00     0.002 C 
BRANCH   6   7
HETATM    7  C   UNK N   1      29.538  17.610   8.467  0.00  0.00     0.026 C 
BRANCH   7   8
HETATM    8  C   UNK N   1      28.411  18.609   8.604  0.00  0.00     0.164 C 
BRANCH   8   9
HETATM    9  O   UNK N   1      27.422  18.068   9.410  0.00  0.00    -0.401 OA
HETATM   10  H   UNK N   1      27.664  17.545  10.190  0.00  0.00     0.209 HD
ENDBRANCH   8   9
ENDBRANCH   7   8
ENDBRANCH   6   7
ENDBRANCH   1   6
TORSDOF 7
ENDMDL
MODEL 3
REMARK VINA RESULT:      -3.7      8.288      9.180
REMARK  7 active torsions:
REMARK  status: ('A' for Active; 'I' for Inactive)
REMARK    1  A    between atoms: C_1  and  C_2 
REMARK    2  A    between atoms: C_1  and  C_3 
REMARK    3  A    between atoms: C_2  and  C_4 
REMARK    4  A    between atoms: C_3  and  C_5 
REMARK    5  A    between atoms: C_4  and  C_6 
REMARK    6  A    between atoms: C_5  and  C_7 
REMARK    7  A    between atoms: C_7  and  O_9 
ROOT
HETATM    1  C   UNK N   1      27.614  20.167   6.508  0.00  0.00     0.000 C 
ENDROOT
BRANCH   1   2
HETATM    2  C   UNK N   1      26.935  20.961   5.419  0.00  0.00     0.000 C 
BRANCH   2   3
HETATM    3  C   UNK N   1      27.189  20.223   4.124  0.00  0.00    -0.000 C 
BRANCH   3   4
HETATM    4  C   UNK N   1      26.034  20.394   3.168  0.00  0.00    -0.005 C 
HETATM    5  C   UNK N   1      24.928  19.447   3.581  0.00  0.00     0.005 C 
ENDBRANCH   3   4
ENDBRANCH   2   3
ENDBRANCH   1   2
BRANCH   1   6
HETATM    6  C   UNK N   1      28.126  18.842   5.998  0.00  0.00     0.002 C 
BRANCH   6   7
HETATM    7  C   UNK N   1      28.144  17.896   7.176  0.00  0.00     0.026 C 
BRANCH   7   8
HETATM    8  C   UNK N   1      28.303  18.657   8.473  0.00  0.00     0.164 C 
BRANCH   8   9
HETATM    9  O   UNK N   1      27.439  18.127   9.418  0.00  0.00    -0.401 OA
HETATM   10  H   UNK N   1      27.321  18.573  10.272  0.00  0.00     0.209 HD
ENDBRANCH   8   9
ENDBRANCH   7   8
ENDBRANCH   6   7
ENDBRANCH   1   6
TORSDOF 7
ENDMDL
MODEL 4
REMARK VINA RESULT:      -3.7     14.457     15.705
REMARK  7 active torsions:
REMARK  status: ('A' for Active; 'I' for Inactive)
REMARK    1  A    between atoms: C_1  and  C_2 
REMARK    2  A    between atoms: C_1  and  C_3 
REMARK    3  A    between atoms: C_2  and  C_4 
REMARK    4  A    between atoms: C_3  and  C_5 
REMARK    5  A    between atoms: C_4  and  C_6 
REMARK    6  A    between atoms: C_5  and  C_7 
REMARK    7  A    between atoms: C_7  and  O_9 
ROOT
HETATM    1  C   UNK N   1      34.536  13.113  16.344  0.00  0.00     0.000 C 
ENDROOT
BRANCH   1   2
HETATM    2  C   UNK N   1      35.469  12.870  15.183  0.00  0.00     0.000 C 
BRANCH   2   3
HETATM    3  C   UNK N   1      36.787  13.519  15.544  0.00  0.00    -0.000 C 
BRANCH   3   4
HETATM    4  C   UNK N   1      36.886  14.906  14.955  0.00  0.00    -0.005 C 
HETATM    5  C   UNK N   1      37.441  15.835  16.013  0.00  0.00     0.005 C 
ENDBRANCH   3   4
ENDBRANCH   2   3
ENDBRANCH   1   2
BRANCH   1   6
HETATM    6  C   UNK N   1      35.281  13.185  17.654  0.00  0.00     0.002 C 
BRANCH   6   7
HETATM    7  C   UNK N   1      35.237  11.802  18.261  0.00  0.00     0.026 C 
BRANCH   7   8
HETATM    8  C   UNK N   1      35.472  11.865  19.754  0.00  0.00     0.164 C 
BRANCH   8   9
HETATM    9  O   UNK N   1      35.069  13.104  20.225  0.00  0.00    -0.401 OA
HETATM   10  H   UNK N   1      34.225  13.483  19.933  0.00  0.00     0.209 HD
ENDBRANCH   8   9
ENDBRANCH   7   8
ENDBRANCH   6   7
ENDBRANCH   1   6
TORSDOF 7
ENDMDL
MODEL 5
REMARK VINA RESULT:      -3.7      9.476     10.662
REMARK  7 active torsions:
REMARK  status: ('A' for Active; 'I' for Inactive)
REMARK    1  A    between atoms: C_1  and  C_2 
REMARK    2  A    between atoms: C_1  and  C_3 
REMARK    3  A    between atoms: C_2  and  C_4 
REMARK    4  A    between atoms: C_3  and  C_5 
REMARK    5  A    between atoms: C_4  and  C_6 
REMARK    6  A    between atoms: C_5  and  C_7 
REMARK    7  A    between atoms: C_7  and  O_9 
ROOT
HETATM    1  C   UNK N   1      30.892  18.338   8.707  0.00  0.00     0.000 C 
ENDROOT
BRANCH   1   2
HETATM    2  C   UNK N   1      29.754  17.679   9.448  0.00  0.00     0.000 C 
BRANCH   2   3
HETATM    3  C   UNK N   1      28.480  18.314   8.938  0.00  0.00    -0.000 C 
BRANCH   3   4
HETATM    4  C   UNK N   1      28.513  18.462   7.436  0.00  0.00    -0.005 C 
HETATM    5  C   UNK N   1      27.783  19.735   7.066  0.00  0.00     0.005 C 
ENDBRANCH   3   4
ENDBRANCH   2   3
ENDBRANCH   1   2
BRANCH   1   6
HETATM    6  C   UNK N   1      32.057  17.397   8.520  0.00  0.00     0.002 C 
BRANCH   6   7
HETATM    7  C   UNK N   1      33.144  18.179   7.820  0.00  0.00     0.026 C 
BRANCH   7   8
HETATM    8  C   UNK N   1      34.483  17.950   8.486  0.00  0.00     0.164 C 
BRANCH   8   9
HETATM    9  O   UNK N   1      35.219  19.123   8.437  0.00  0.00    -0.401 OA
HETATM   10  H   UNK N   1      34.809  19.964   8.694  0.00  0.00     0.209 HD
ENDBRANCH   8   9
ENDBRANCH   7   8
ENDBRANCH   6   7
ENDBRANCH   1   6
TORSDOF 7
ENDMDL
MODEL 6
REMARK VINA RESULT:      -3.7     14.274     15.205
REMARK  7 active torsions:
REMARK  status: ('A' for Active; 'I' for Inactive)
REMARK    1  A    between atoms: C_1  and  C_2 
REMARK    2  A    between atoms: C_1  and  C_3 
REMARK    3  A    between atoms: C_2  and  C_4 
REMARK    4  A    between atoms: C_3  and  C_5 
REMARK    5  A    between atoms: C_4  and  C_6 
REMARK    6  A    between atoms: C_5  and  C_7 
REMARK    7  A    between atoms: C_7  and  O_9 
ROOT
HETATM    1  C   UNK N   1      36.667  13.398  14.255  0.00  0.00     0.000 C 
ENDROOT
BRANCH   1   2
HETATM    2  C   UNK N   1      36.403  13.750  15.699  0.00  0.00     0.000 C 
BRANCH   2   3
HETATM    3  C   UNK N   1      35.192  12.951  16.124  0.00  0.00    -0.000 C 
BRANCH   3   4
HETATM    4  C   UNK N   1      35.077  12.901  17.628  0.00  0.00    -0.005 C 
HETATM    5  C   UNK N   1      35.338  14.289  18.173  0.00  0.00     0.005 C 
ENDBRANCH   3   4
ENDBRANCH   2   3
ENDBRANCH   1   2
BRANCH   1   6
HETATM    6  C   UNK N   1      35.590  13.932  13.343  0.00  0.00     0.002 C 
BRANCH   6   7
HETATM    7  C   UNK N   1      36.234  14.174  11.998  0.00  0.00     0.026 C 
BRANCH   7   8
HETATM    8  C   UNK N   1      35.858  15.538  11.461  0.00  0.00     0.164 C 
BRANCH   8   9
HETATM    9  O   UNK N   1      36.975  16.120  10.884  0.00  0.00    -0.401 OA
HETATM   10  H   UNK N   1      37.582  16.649  11.426  0.00  0.00     0.209 HD
ENDBRANCH   8   9
ENDBRANCH   7   8
ENDBRANCH   6   7
ENDBRANCH   1   6
TORSDOF 7
ENDMDL
MODEL 7
REMARK VINA RESULT:      -3.6     14.173     15.426
REMARK  7 active torsions:
REMARK  status: ('A' for Active; 'I' for Inactive)
REMARK    1  A    between atoms: C_1  and  C_2 
REMARK    2  A    between atoms: C_1  and  C_3 
REMARK    3  A    between atoms: C_2  and  C_4 
REMARK    4  A    between atoms: C_3  and  C_5 
REMARK    5  A    between atoms: C_4  and  C_6 
REMARK    6  A    between atoms: C_5  and  C_7 
REMARK    7  A    between atoms: C_7  and  O_9 
ROOT
HETATM    1  C   UNK N   1      35.183  13.268  15.903  0.00  0.00     0.000 C 
ENDROOT
BRANCH   1   2
HETATM    2  C   UNK N   1      35.265  12.426  17.152  0.00  0.00     0.000 C 
BRANCH   2   3
HETATM    3  C   UNK N   1      35.160  13.378  18.323  0.00  0.00    -0.000 C 
BRANCH   3   4
HETATM    4  C   UNK N   1      35.243  12.635  19.634  0.00  0.00    -0.005 C 
HETATM    5  C   UNK N   1      35.603  11.194  19.343  0.00  0.00     0.005 C 
ENDBRANCH   3   4
ENDBRANCH   2   3
ENDBRANCH   1   2
BRANCH   1   6
HETATM    6  C   UNK N   1      36.458  13.203  15.099  0.00  0.00     0.002 C 
BRANCH   6   7
HETATM    7  C   UNK N   1      36.264  14.091  13.893  0.00  0.00     0.026 C 
BRANCH   7   8
HETATM    8  C   UNK N   1      35.819  13.281  12.696  0.00  0.00     0.164 C 
BRANCH   8   9
HETATM    9  O   UNK N   1      34.466  13.490  12.485  0.00  0.00    -0.401 OA
HETATM   10  H   UNK N   1      34.097  13.414  11.590  0.00  0.00     0.209 HD
ENDBRANCH   8   9
ENDBRANCH   7   8
ENDBRANCH   6   7
ENDBRANCH   1   6
TORSDOF 7
ENDMDL
MODEL 8
REMARK VINA RESULT:      -3.6     19.689     20.719
REMARK  7 active torsions:
REMARK  status: ('A' for Active; 'I' for Inactive)
REMARK    1  A    between atoms: C_1  and  C_2 
REMARK    2  A    between atoms: C_1  and  C_3 
REMARK    3  A    between atoms: C_2  and  C_4 
REMARK    4  A    between atoms: C_3  and  C_5 
REMARK    5  A    between atoms: C_4  and  C_6 
REMARK    6  A    between atoms: C_5  and  C_7 
REMARK    7  A    between atoms: C_7  and  O_9 
ROOT
HETATM    1  C   UNK N   1      25.604  24.828  -5.295  0.00  0.00     0.000 C 
ENDROOT
BRANCH   1   2
HETATM    2  C   UNK N   1      25.572  25.969  -6.282  0.00  0.00     0.000 C 
BRANCH   2   3
HETATM    3  C   UNK N   1      24.707  27.047  -5.669  0.00  0.00    -0.000 C 
BRANCH   3   4
HETATM    4  C   UNK N   1      25.484  27.854  -4.658  0.00  0.00    -0.005 C 
HETATM    5  C   UNK N   1      26.716  28.412  -5.337  0.00  0.00     0.005 C 
ENDBRANCH   3   4
ENDBRANCH   2   3
ENDBRANCH   1   2
BRANCH   1   6
HETATM    6  C   UNK N   1      25.823  23.502  -5.979  0.00  0.00     0.002 C 
BRANCH   6   7
HETATM    7  C   UNK N   1      25.886  23.778  -7.463  0.00  0.00     0.026 C 
BRANCH   7   8
HETATM    8  C   UNK N   1      25.474  22.556  -8.254  0.00  0.00     0.164 C 
BRANCH   8   9
HETATM    9  O   UNK N   1      24.101  22.395  -8.157  0.00  0.00    -0.401 OA
HETATM   10  H   UNK N   1      23.570  23.044  -7.668  0.00  0.00     0.209 HD
ENDBRANCH   8   9
ENDBRANCH   7   8
ENDBRANCH   6   7
ENDBRANCH   1   6
TORSDOF 7
ENDMDL
MODEL 9
REMARK VINA RESULT:      -3.6     10.477     11.901
REMARK  7 active torsions:
REMARK  status: ('A' for Active; 'I' for Inactive)
REMARK    1  A    between atoms: C_1  and  C_2 
REMARK    2  A    between atoms: C_1  and  C_3 
REMARK    3  A    between atoms: C_2  and  C_4 
REMARK    4  A    between atoms: C_3  and  C_5 
REMARK    5  A    between atoms: C_4  and  C_6 
REMARK    6  A    between atoms: C_5  and  C_7 
REMARK    7  A    between atoms: C_7  and  O_9 
ROOT
HETATM    1  C   UNK N   1      31.260  16.754   8.017  0.00  0.00     0.000 C 
ENDROOT
BRANCH   1   2
HETATM    2  C   UNK N   1      30.382  17.001   6.815  0.00  0.00     0.000 C 
BRANCH   2   3
HETATM    3  C   UNK N   1      31.105  16.413   5.624  0.00  0.00    -0.000 C 
BRANCH   3   4
HETATM    4  C   UNK N   1      31.405  17.475   4.595  0.00  0.00    -0.005 C 
HETATM    5  C   UNK N   1      32.907  17.577   4.438  0.00  0.00     0.005 C 
ENDBRANCH   3   4
ENDBRANCH   2   3
ENDBRANCH   1   2
BRANCH   1   6
HETATM    6  C   UNK N   1      32.042  17.986   8.401  0.00  0.00     0.002 C 
BRANCH   6   7
HETATM    7  C   UNK N   1      33.455  17.537   8.691  0.00  0.00     0.026 C 
BRANCH   7   8
HETATM    8  C   UNK N   1      34.437  18.229   7.772  0.00  0.00     0.164 C 
BRANCH   8   9
HETATM    9  O   UNK N   1      35.211  19.106   8.515  0.00  0.00    -0.401 OA
HETATM   10  H   UNK N   1      35.802  18.767   9.205  0.00  0.00     0.209 HD
ENDBRANCH   8   9
ENDBRANCH   7   8
ENDBRANCH   6   7
ENDBRANCH   1   6
TORSDOF 7
ENDMDL
