REMARK  19 active torsions:
REMARK  status: ('A' for Active; 'I' for Inactive)
REMARK    1  A    between atoms: C_2  and  C_3 
REMARK    2  A    between atoms: C_3  and  C_4 
REMARK    3  A    between atoms: C_5  and  O_20 
REMARK    4  A    between atoms: C_8  and  C_17 
REMARK    5  A    between atoms: C_9  and  O_10 
REMARK    6  A    between atoms: O_10  and  C_11 
REMARK    7  A    between atoms: C_11  and  C_12 
REMARK    8  A    between atoms: C_12  and  C_13 
REMARK    9  A    between atoms: C_13  and  C_14 
REMARK   10  A    between atoms: C_14  and  O_16 
REMARK   11  A    between atoms: O_20  and  C_21 
REMARK   12  A    between atoms: C_21  and  C_22 
REMARK   13  A    between atoms: C_22  and  C_23 
REMARK   14  A    between atoms: C_23  and  S_24 
REMARK   15  A    between atoms: S_24  and  C_25 
REMARK   16  A    between atoms: C_28  and  C_35 
REMARK   17  A    between atoms: C_29  and  O_34 
REMARK   18  A    between atoms: C_30  and  C_31 
REMARK   19  A    between atoms: C_31  and  C_32 
ROOT
HETATM    1  C   UNK N   1       0.017  -3.773  -0.127  0.00  0.00     0.010 A 
HETATM    2  C   UNK N   1       1.141  -4.245  -0.819  0.00  0.00     0.077 A 
HETATM    3  C   UNK N   1       1.317  -5.613  -1.029  0.00  0.00     0.038 A 
HETATM    4  C   UNK N   1       0.374  -6.521  -0.557  0.00  0.00     0.021 A 
HETATM    5  C   UNK N   1      -0.770  -6.083   0.128  0.00  0.00     0.043 A 
HETATM    6  C   UNK N   1      -0.959  -4.694   0.347  0.00  0.00     0.091 A 
ENDROOT
BRANCH   2   7
HETATM    7  O   UNK N   1       2.048  -3.363  -1.283  0.00  0.00    -0.350 OA
BRANCH   7   8
HETATM    8  C   UNK N   1       3.296  -3.268  -0.733  0.00  0.00     0.176 C 
BRANCH   8   9
HETATM    9  C   UNK N   1       3.226  -2.462   0.563  0.00  0.00     0.037 C 
BRANCH   9  10
HETATM   10  C   UNK N   1       4.555  -2.460   1.304  0.00  0.00     0.081 C 
BRANCH  10  11
HETATM   11  S   UNK N   1       5.869  -1.901   0.185  0.00  0.00    -0.129 SA
BRANCH  11  12
HETATM   12  C   UNK N   1       6.953  -3.358   0.118  0.00  0.00     0.009 A 
HETATM   13  C   UNK N   1       8.279  -3.070  -0.199  0.00  0.00     0.020 A 
HETATM   14  C   UNK N   1       9.228  -4.075  -0.323  0.00  0.00     0.019 A 
HETATM   15  C   UNK N   1       8.886  -5.414  -0.129  0.00  0.00     0.043 A 
HETATM   16  C   UNK N   1       7.552  -5.737   0.202  0.00  0.00     0.087 A 
HETATM   17  C   UNK N   1       6.575  -4.721   0.319  0.00  0.00    -0.007 A 
BRANCH  15  18
HETATM   18  C   UNK N   1       9.953  -6.443  -0.289  0.00  0.00     0.158 C 
HETATM   19  O   UNK N   1      11.089  -6.093  -0.570  0.00  0.00    -0.293 OA
HETATM   20  C   UNK N   1       9.686  -7.905  -0.132  0.00  0.00     0.097 C 
ENDBRANCH  15  18
BRANCH  16  21
HETATM   21  O   UNK N   1       7.195  -7.019   0.407  0.00  0.00    -0.359 OA
HETATM   22  H   UNK N   1       6.298  -7.250   0.550  0.00  0.00     0.217 HD
ENDBRANCH  16  21
BRANCH  17  23
HETATM   23  C   UNK N   1       5.176  -5.139   0.669  0.00  0.00     0.042 C 
BRANCH  23  24
HETATM   24  C   UNK N   1       4.586  -6.066  -0.383  0.00  0.00     0.000 C 
HETATM   25  C   UNK N   1       3.947  -7.258   0.299  0.00  0.00     0.005 C 
ENDBRANCH  23  24
ENDBRANCH  17  23
ENDBRANCH  11  12
ENDBRANCH  10  11
ENDBRANCH   9  10
ENDBRANCH   8   9
ENDBRANCH   7   8
ENDBRANCH   2   7
BRANCH   1  26
HETATM   26  C   UNK N   1      -0.083  -2.297   0.149  0.00  0.00     0.044 C 
BRANCH  26  27
HETATM   27  C   UNK N   1      -0.186  -1.475  -1.122  0.00  0.00     0.000 C 
HETATM   28  C   UNK N   1      -0.233  -0.009  -0.753  0.00  0.00     0.005 C 
ENDBRANCH  26  27
ENDBRANCH   1  26
BRANCH   6  29
HETATM   29  O   UNK N   1      -2.083  -4.288   1.004  0.00  0.00    -0.349 OA
BRANCH  29  30
HETATM   30  C   UNK N   1      -2.663  -3.041   0.911  0.00  0.00     0.176 C 
BRANCH  30  31
HETATM   31  C   UNK N   1      -3.192  -2.814  -0.504  0.00  0.00     0.037 C 
BRANCH  31  32
HETATM   32  C   UNK N   1      -4.261  -3.843  -0.835  0.00  0.00     0.112 C 
BRANCH  32  33
HETATM   33  C   UNK N   1      -5.560  -3.537  -0.156  0.00  0.00     0.139 C 
HETATM   34  O   UNK N   1      -6.458  -4.361  -0.179  0.00  0.00    -0.650 OA
BRANCH  33  35
HETATM   35  O   UNK N   1      -5.749  -2.362   0.478  0.00  0.00    -0.776 OA
HETATM   36  H   UNK N   1      -5.107  -1.841   0.919  0.00  0.00     0.167 HD
ENDBRANCH  33  35
ENDBRANCH  32  33
ENDBRANCH  31  32
ENDBRANCH  30  31
ENDBRANCH  29  30
ENDBRANCH   6  29
BRANCH   5  37
HETATM   37  C   UNK N   1      -1.761  -7.099   0.587  0.00  0.00     0.158 C 
HETATM   38  O   UNK N   1      -2.780  -6.761   1.171  0.00  0.00    -0.293 OA
HETATM   39  C   UNK N   1      -1.538  -8.555   0.331  0.00  0.00     0.097 C 
ENDBRANCH   5  37
TORSDOF 19
