MODEL 1
REMARK VINA RESULT:      -7.2      0.000      0.000
REMARK  5 active torsions:
REMARK  status: ('A' for Active; 'I' for Inactive)
REMARK    1  A    between atoms: C_12  and  C_10 
REMARK    2  A    between atoms: C_15  and  C_10 
REMARK    3  A    between atoms: C_18  and  C_13 
REMARK    4  A    between atoms: O_27  and  C_15 
REMARK    5  A    between atoms: N_20  and  C_17 
REMARK       I    between atoms: N_26  and  C_18 
ROOT
HETATM    1  C   UNK N   1      35.741   9.943  14.249  0.00  0.00     0.045 C 
HETATM    2  C   UNK N   1      33.427  10.892  14.698  0.00  0.00     0.045 C 
HETATM    3  C   UNK N   1      35.719  13.450  13.890  0.00  0.00     0.171 A 
HETATM    4  C   UNK N   1      35.200  12.874  12.643  0.00  0.00     0.032 A 
HETATM    5  C   UNK N   1      34.746  11.643  12.814  0.00  0.00     0.065 A 
HETATM    6  C   UNK N   1      34.951  13.172  11.332  0.00  0.00     0.131 A 
HETATM    7  C   UNK N   1      35.730  12.542  16.177  0.00  0.00     0.225 C 
HETATM    8  C   UNK N   1      34.839  11.167  14.199  0.00  0.00     0.073 A 
HETATM    9  N   UNK N   1      34.245  11.145  11.669  0.00  0.00    -0.300 N 
HETATM   10  N   UNK N   1      34.366  12.099  10.745  0.00  0.00    -0.285 N 
ATOM     11  HN  UNK N   1      34.073  12.032   9.772  1.00  0.00     0.188 HD
HETATM   12  N   UNK N   1      35.446  12.356  14.838  0.00  0.00    -0.333 N 
HETATM   13  O   UNK N   1      36.241  13.602  16.514  0.00  0.00    -0.273 OA
HETATM   14  H   UNK N   1      33.862  10.248  11.539  0.00  0.00     0.186 HD
ENDROOT
BRANCH   6  15
HETATM   15  N   UNK N   1      35.182  14.420  10.695  0.00  0.00    -0.325 N 
HETATM   16  C   UNK N   1      34.233  15.269  10.486  0.00  0.00     0.117 C 
ATOM     17  HN  UNK N   1      36.129  14.653  10.394  1.00  0.00     0.169 HD
BRANCH  16  18
HETATM   18  C   UNK N   1      34.508  16.544   9.756  0.00  0.00     0.088 C 
BRANCH  18  19
HETATM   19  C   UNK N   1      33.712  16.626   8.461  0.00  0.00    -0.015 C 
HETATM   20  C   UNK N   1      34.571  16.111   7.325  0.00  0.00     0.010 C 
HETATM   21  C   UNK N   1      33.328  18.066   8.160  0.00  0.00     0.010 C 
ENDBRANCH  18  19
ENDBRANCH  16  18
BRANCH  16  22
HETATM   22  O   UNK N   1      32.988  15.050  10.959  0.00  0.00    -0.349 OA
HETATM   23  H   UNK N   1      32.286  14.472  10.736  0.00  0.00     0.219 HD
ENDBRANCH  16  22
ENDBRANCH   6  15
BRANCH   7  24
HETATM   24  C   UNK N   1      35.450  11.555  17.311  0.00  0.00     0.081 C 
HETATM   25  C   UNK N   1      36.516  10.455  17.296  0.00  0.00     0.044 C 
HETATM   26  C   UNK N   1      36.148   9.355  18.287  0.00  0.00     0.272 C 
HETATM   27  N   UNK N   1      36.048   9.911  19.634  0.00  0.00     0.084 N 
HETATM   28  C   UNK N   1      35.696   8.820  20.522  0.00  0.00     0.309 C 
HETATM   29  C   UNK N   1      34.944  10.868  19.667  0.00  0.00     0.272 C 
HETATM   30  C   UNK N   1      35.239  12.045  18.741  0.00  0.00     0.044 C 
ENDBRANCH   7  24
TORSDOF 5
ENDMDL
MODEL 2
REMARK VINA RESULT:      -7.2      3.476     10.357
REMARK  5 active torsions:
REMARK  status: ('A' for Active; 'I' for Inactive)
REMARK    1  A    between atoms: C_12  and  C_10 
REMARK    2  A    between atoms: C_15  and  C_10 
REMARK    3  A    between atoms: C_18  and  C_13 
REMARK    4  A    between atoms: O_27  and  C_15 
REMARK    5  A    between atoms: N_20  and  C_17 
REMARK       I    between atoms: N_26  and  C_18 
ROOT
HETATM    1  C   UNK N   1      34.454  16.982   7.087  0.00  0.00     0.045 C 
HETATM    2  C   UNK N   1      32.328  17.447   8.398  0.00  0.00     0.045 C 
HETATM    3  C   UNK N   1      33.653  14.277   9.201  0.00  0.00     0.171 A 
HETATM    4  C   UNK N   1      34.333  15.291  10.017  0.00  0.00     0.032 A 
HETATM    5  C   UNK N   1      34.277  16.493   9.468  0.00  0.00     0.065 A 
HETATM    6  C   UNK N   1      34.979  15.468  11.209  0.00  0.00     0.131 A 
HETATM    7  C   UNK N   1      32.358  14.517   7.123  0.00  0.00     0.225 C 
HETATM    8  C   UNK N   1      33.528  16.530   8.206  0.00  0.00     0.073 A 
HETATM    9  N   UNK N   1      34.876  17.413  10.246  0.00  0.00    -0.300 N 
HETATM   10  N   UNK N   1      35.309  16.777  11.334  0.00  0.00    -0.285 N 
ATOM     11  HN  UNK N   1      35.803  17.200  12.119  1.00  0.00     0.188 HD
HETATM   12  N   UNK N   1      33.143  15.106   8.095  0.00  0.00    -0.333 N 
HETATM   13  O   UNK N   1      32.154  13.312   7.200  0.00  0.00    -0.273 OA
HETATM   14  H   UNK N   1      34.975  18.371  10.048  0.00  0.00     0.186 HD
ENDROOT
BRANCH   6  15
HETATM   15  N   UNK N   1      35.203  14.476  12.200  0.00  0.00    -0.325 N 
HETATM   16  C   UNK N   1      36.334  13.865  12.314  0.00  0.00     0.117 C 
ATOM     17  HN  UNK N   1      34.447  14.240  12.843  1.00  0.00     0.169 HD
BRANCH  16  18
HETATM   18  C   UNK N   1      36.509  12.784  13.331  0.00  0.00     0.088 C 
BRANCH  18  19
HETATM   19  C   UNK N   1      35.433  12.853  14.406  0.00  0.00    -0.015 C 
HETATM   20  C   UNK N   1      36.100  12.876  15.765  0.00  0.00     0.010 C 
HETATM   21  C   UNK N   1      34.527  11.634  14.334  0.00  0.00     0.010 C 
ENDBRANCH  18  19
ENDBRANCH  16  18
BRANCH  16  22
HETATM   22  O   UNK N   1      37.394  14.217  11.556  0.00  0.00    -0.349 OA
HETATM   23  H   UNK N   1      37.516  14.735  10.785  0.00  0.00     0.219 HD
ENDBRANCH  16  22
ENDBRANCH   6  15
BRANCH   7  24
HETATM   24  C   UNK N   1      31.684  15.225   5.947  0.00  0.00     0.081 C 
HETATM   25  C   UNK N   1      31.797  14.346   4.697  0.00  0.00     0.044 C 
HETATM   26  C   UNK N   1      31.311  15.113   3.471  0.00  0.00     0.272 C 
HETATM   27  N   UNK N   1      29.918  15.513   3.654  0.00  0.00     0.084 N 
HETATM   28  C   UNK N   1      29.520  16.234   2.460  0.00  0.00     0.309 C 
HETATM   29  C   UNK N   1      29.841  16.452   4.772  0.00  0.00     0.272 C 
HETATM   30  C   UNK N   1      30.261  15.763   6.068  0.00  0.00     0.044 C 
ENDBRANCH   7  24
TORSDOF 5
ENDMDL
MODEL 3
REMARK VINA RESULT:      -7.0      1.920      2.926
REMARK  5 active torsions:
REMARK  status: ('A' for Active; 'I' for Inactive)
REMARK    1  A    between atoms: C_12  and  C_10 
REMARK    2  A    between atoms: C_15  and  C_10 
REMARK    3  A    between atoms: C_18  and  C_13 
REMARK    4  A    between atoms: O_27  and  C_15 
REMARK    5  A    between atoms: N_20  and  C_17 
REMARK       I    between atoms: N_26  and  C_18 
ROOT
HETATM    1  C   UNK N   1      35.542  13.178  15.820  0.00  0.00     0.045 C 
HETATM    2  C   UNK N   1      37.546  12.188  14.611  0.00  0.00     0.045 C 
HETATM    3  C   UNK N   1      34.692  12.219  12.536  0.00  0.00     0.171 A 
HETATM    4  C   UNK N   1      35.342  13.533  12.460  0.00  0.00     0.032 A 
HETATM    5  C   UNK N   1      36.087  13.783  13.524  0.00  0.00     0.065 A 
HETATM    6  C   UNK N   1      35.514  14.612  11.636  0.00  0.00     0.131 A 
HETATM    7  C   UNK N   1      34.900  10.438  14.221  0.00  0.00     0.225 C 
HETATM    8  C   UNK N   1      36.111  12.686  14.498  0.00  0.00     0.073 A 
HETATM    9  N   UNK N   1      36.700  14.976  13.419  0.00  0.00    -0.300 N 
HETATM   10  N   UNK N   1      36.349  15.492  12.241  0.00  0.00    -0.285 N 
ATOM     11  HN  UNK N   1      36.653  16.389  11.864  1.00  0.00     0.188 HD
HETATM   12  N   UNK N   1      35.226  11.717  13.814  0.00  0.00    -0.333 N 
HETATM   13  O   UNK N   1      34.141   9.786  13.516  0.00  0.00    -0.273 OA
HETATM   14  H   UNK N   1      37.295  15.389  14.086  0.00  0.00     0.186 HD
ENDROOT
BRANCH   6  15
HETATM   15  N   UNK N   1      34.981  14.765  10.329  0.00  0.00    -0.325 N 
HETATM   16  C   UNK N   1      34.551  15.902   9.894  0.00  0.00     0.117 C 
ATOM     17  HN  UNK N   1      34.939  13.953   9.714  1.00  0.00     0.169 HD
BRANCH  16  18
HETATM   18  C   UNK N   1      33.941  16.007   8.534  0.00  0.00     0.088 C 
BRANCH  18  19
HETATM   19  C   UNK N   1      33.596  17.450   8.190  0.00  0.00    -0.015 C 
HETATM   20  C   UNK N   1      32.124  17.679   8.457  0.00  0.00     0.010 C 
HETATM   21  C   UNK N   1      33.868  17.728   6.719  0.00  0.00     0.010 C 
ENDBRANCH  18  19
ENDBRANCH  16  18
BRANCH  16  22
HETATM   22  O   UNK N   1      34.683  17.023  10.633  0.00  0.00    -0.349 OA
HETATM   23  H   UNK N   1      35.228  17.288  11.347  0.00  0.00     0.219 HD
ENDBRANCH  16  22
ENDBRANCH   6  15
BRANCH   7  24
HETATM   24  C   UNK N   1      35.413   9.725  15.472  0.00  0.00     0.081 C 
HETATM   25  C   UNK N   1      34.430   9.957  16.624  0.00  0.00     0.044 C 
HETATM   26  C   UNK N   1      35.015   9.425  17.928  0.00  0.00     0.272 C 
HETATM   27  N   UNK N   1      35.285   7.995  17.807  0.00  0.00     0.084 N 
HETATM   28  C   UNK N   1      35.838   7.554  19.074  0.00  0.00     0.309 C 
HETATM   29  C   UNK N   1      36.318   7.796  16.792  0.00  0.00     0.272 C 
HETATM   30  C   UNK N   1      35.810   8.251  15.427  0.00  0.00     0.044 C 
ENDBRANCH   7  24
TORSDOF 5
ENDMDL
MODEL 4
REMARK VINA RESULT:      -7.0      6.598     10.872
REMARK  5 active torsions:
REMARK  status: ('A' for Active; 'I' for Inactive)
REMARK    1  A    between atoms: C_12  and  C_10 
REMARK    2  A    between atoms: C_15  and  C_10 
REMARK    3  A    between atoms: C_18  and  C_13 
REMARK    4  A    between atoms: O_27  and  C_15 
REMARK    5  A    between atoms: N_20  and  C_17 
REMARK       I    between atoms: N_26  and  C_18 
ROOT
HETATM    1  C   UNK N   1      32.638  17.224   5.168  0.00  0.00     0.045 C 
HETATM    2  C   UNK N   1      31.462  14.995   5.493  0.00  0.00     0.045 C 
HETATM    3  C   UNK N   1      29.500  17.662   6.713  0.00  0.00     0.171 A 
HETATM    4  C   UNK N   1      29.268  17.531   5.269  0.00  0.00     0.032 A 
HETATM    5  C   UNK N   1      30.274  16.929   4.655  0.00  0.00     0.065 A 
HETATM    6  C   UNK N   1      28.335  17.759   4.296  0.00  0.00     0.131 A 
HETATM    7  C   UNK N   1      31.346  16.828   8.108  0.00  0.00     0.225 C 
HETATM    8  C   UNK N   1      31.352  16.512   5.560  0.00  0.00     0.073 A 
HETATM    9  N   UNK N   1      30.028  16.789   3.340  0.00  0.00    -0.300 N 
HETATM   10  N   UNK N   1      28.818  17.301   3.115  0.00  0.00    -0.285 N 
ATOM     11  HN  UNK N   1      28.342  17.341   2.214  1.00  0.00     0.188 HD
HETATM   12  N   UNK N   1      30.801  16.986   6.849  0.00  0.00    -0.333 N 
HETATM   13  O   UNK N   1      30.739  17.298   9.061  0.00  0.00    -0.273 OA
HETATM   14  H   UNK N   1      30.628  16.385   2.673  0.00  0.00     0.186 HD
ENDROOT
BRANCH   6  15
HETATM   15  N   UNK N   1      27.039  18.308   4.484  0.00  0.00    -0.325 N 
HETATM   16  C   UNK N   1      26.746  19.512   4.123  0.00  0.00     0.117 C 
ATOM     17  HN  UNK N   1      26.317  17.733   4.917  1.00  0.00     0.169 HD
BRANCH  16  18
HETATM   18  C   UNK N   1      25.388  20.073   4.396  0.00  0.00     0.088 C 
BRANCH  18  19
HETATM   19  C   UNK N   1      24.333  19.431   3.505  0.00  0.00    -0.015 C 
HETATM   20  C   UNK N   1      23.500  20.523   2.867  0.00  0.00     0.010 C 
HETATM   21  C   UNK N   1      23.413  18.539   4.324  0.00  0.00     0.010 C 
ENDBRANCH  18  19
ENDBRANCH  16  18
BRANCH  16  22
HETATM   22  O   UNK N   1      27.638  20.273   3.453  0.00  0.00    -0.349 OA
HETATM   23  H   UNK N   1      27.686  21.174   3.202  0.00  0.00     0.219 HD
ENDBRANCH  16  22
ENDBRANCH   6  15
BRANCH   7  24
HETATM   24  C   UNK N   1      32.643  16.094   8.452  0.00  0.00     0.081 C 
HETATM   25  C   UNK N   1      33.688  17.111   8.923  0.00  0.00     0.044 C 
HETATM   26  C   UNK N   1      35.045  16.434   9.080  0.00  0.00     0.272 C 
HETATM   27  N   UNK N   1      34.951  15.352  10.058  0.00  0.00     0.084 N 
HETATM   28  C   UNK N   1      36.268  14.752  10.159  0.00  0.00     0.309 C 
HETATM   29  C   UNK N   1      34.049  14.326   9.539  0.00  0.00     0.272 C 
HETATM   30  C   UNK N   1      32.638  14.893   9.393  0.00  0.00     0.044 C 
ENDBRANCH   7  24
TORSDOF 5
ENDMDL
MODEL 5
REMARK VINA RESULT:      -6.9      2.642      9.745
REMARK  5 active torsions:
REMARK  status: ('A' for Active; 'I' for Inactive)
REMARK    1  A    between atoms: C_12  and  C_10 
REMARK    2  A    between atoms: C_15  and  C_10 
REMARK    3  A    between atoms: C_18  and  C_13 
REMARK    4  A    between atoms: O_27  and  C_15 
REMARK    5  A    between atoms: N_20  and  C_17 
REMARK       I    between atoms: N_26  and  C_18 
ROOT
HETATM    1  C   UNK N   1      33.452  12.899   8.070  0.00  0.00     0.045 C 
HETATM    2  C   UNK N   1      35.691  14.074   7.826  0.00  0.00     0.045 C 
HETATM    3  C   UNK N   1      33.997  15.149  10.728  0.00  0.00     0.171 A 
HETATM    4  C   UNK N   1      34.722  13.912  11.040  0.00  0.00     0.032 A 
HETATM    5  C   UNK N   1      34.965  13.190   9.958  0.00  0.00     0.065 A 
HETATM    6  C   UNK N   1      35.313  13.231  12.068  0.00  0.00     0.131 A 
HETATM    7  C   UNK N   1      33.327  16.096   8.558  0.00  0.00     0.225 C 
HETATM    8  C   UNK N   1      34.485  13.809   8.717  0.00  0.00     0.073 A 
HETATM    9  N   UNK N   1      35.658  12.078  10.260  0.00  0.00    -0.300 N 
HETATM   10  N   UNK N   1      35.881  12.104  11.574  0.00  0.00    -0.285 N 
ATOM     11  HN  UNK N   1      36.388  11.401  12.111  1.00  0.00     0.188 HD
HETATM   12  N   UNK N   1      33.897  15.053   9.262  0.00  0.00    -0.333 N 
HETATM   13  O   UNK N   1      32.888  17.045   9.193  0.00  0.00    -0.273 OA
HETATM   14  H   UNK N   1      35.946  11.379   9.630  0.00  0.00     0.186 HD
ENDROOT
BRANCH   6  15
HETATM   15  N   UNK N   1      35.398  13.657  13.420  0.00  0.00    -0.325 N 
HETATM   16  C   UNK N   1      36.412  13.373  14.166  0.00  0.00     0.117 C 
ATOM     17  HN  UNK N   1      34.634  14.206  13.814  1.00  0.00     0.169 HD
BRANCH  16  18
HETATM   18  C   UNK N   1      36.434  13.788  15.601  0.00  0.00     0.088 C 
BRANCH  18  19
HETATM   19  C   UNK N   1      35.392  13.032  16.414  0.00  0.00    -0.015 C 
HETATM   20  C   UNK N   1      35.238  13.706  17.761  0.00  0.00     0.010 C 
HETATM   21  C   UNK N   1      35.833  11.594  16.643  0.00  0.00     0.010 C 
ENDBRANCH  18  19
ENDBRANCH  16  18
BRANCH  16  22
HETATM   22  O   UNK N   1      37.491  12.739  13.659  0.00  0.00    -0.349 OA
HETATM   23  H   UNK N   1      37.700  11.851  13.447  0.00  0.00     0.219 HD
ENDBRANCH  16  22
ENDBRANCH   6  15
BRANCH   7  24
HETATM   24  C   UNK N   1      33.203  16.205   7.038  0.00  0.00     0.081 C 
HETATM   25  C   UNK N   1      31.788  15.798   6.617  0.00  0.00     0.044 C 
HETATM   26  C   UNK N   1      31.697  15.708   5.097  0.00  0.00     0.272 C 
HETATM   27  N   UNK N   1      32.024  17.001   4.501  0.00  0.00     0.084 N 
HETATM   28  C   UNK N   1      31.921  16.847   3.062  0.00  0.00     0.309 C 
HETATM   29  C   UNK N   1      33.418  17.320   4.803  0.00  0.00     0.272 C 
HETATM   30  C   UNK N   1      33.606  17.485   6.309  0.00  0.00     0.044 C 
ENDBRANCH   7  24
TORSDOF 5
ENDMDL
MODEL 6
REMARK VINA RESULT:      -6.9     10.193     14.747
REMARK  5 active torsions:
REMARK  status: ('A' for Active; 'I' for Inactive)
REMARK    1  A    between atoms: C_12  and  C_10 
REMARK    2  A    between atoms: C_15  and  C_10 
REMARK    3  A    between atoms: C_18  and  C_13 
REMARK    4  A    between atoms: O_27  and  C_15 
REMARK    5  A    between atoms: N_20  and  C_17 
REMARK       I    between atoms: N_26  and  C_18 
ROOT
HETATM    1  C   UNK N   1      26.895  20.298   6.235  0.00  0.00     0.045 C 
HETATM    2  C   UNK N   1      27.800  19.367   4.050  0.00  0.00     0.045 C 
HETATM    3  C   UNK N   1      25.105  17.427   5.242  0.00  0.00     0.171 A 
HETATM    4  C   UNK N   1      24.566  18.567   4.491  0.00  0.00     0.032 A 
HETATM    5  C   UNK N   1      25.420  19.576   4.434  0.00  0.00     0.065 A 
HETATM    6  C   UNK N   1      23.487  18.965   3.750  0.00  0.00     0.131 A 
HETATM    7  C   UNK N   1      27.328  17.090   6.242  0.00  0.00     0.225 C 
HETATM    8  C   UNK N   1      26.699  19.303   5.100  0.00  0.00     0.073 A 
HETATM    9  N   UNK N   1      24.922  20.596   3.713  0.00  0.00    -0.300 N 
HETATM   10  N   UNK N   1      23.719  20.215   3.281  0.00  0.00    -0.285 N 
ATOM     11  HN  UNK N   1      23.087  20.768   2.703  1.00  0.00     0.188 HD
HETATM   12  N   UNK N   1      26.450  17.925   5.578  0.00  0.00    -0.333 N 
HETATM   13  O   UNK N   1      26.932  15.977   6.562  0.00  0.00    -0.273 OA
HETATM   14  H   UNK N   1      25.361  21.459   3.539  0.00  0.00     0.186 HD
ENDROOT
BRANCH   6  15
HETATM   15  N   UNK N   1      22.343  18.182   3.443  0.00  0.00    -0.325 N 
HETATM   16  C   UNK N   1      21.144  18.601   3.674  0.00  0.00     0.117 C 
ATOM     17  HN  UNK N   1      22.472  17.261   3.026  1.00  0.00     0.169 HD
BRANCH  16  18
HETATM   18  C   UNK N   1      19.969  17.722   3.394  0.00  0.00     0.088 C 
BRANCH  18  19
HETATM   19  C   UNK N   1      20.408  16.325   2.975  0.00  0.00    -0.015 C 
HETATM   20  C   UNK N   1      20.097  16.134   1.506  0.00  0.00     0.010 C 
HETATM   21  C   UNK N   1      19.656  15.268   3.769  0.00  0.00     0.010 C 
ENDBRANCH  18  19
ENDBRANCH  16  18
BRANCH  16  22
HETATM   22  O   UNK N   1      20.922  19.853   4.128  0.00  0.00    -0.349 OA
HETATM   23  H   UNK N   1      21.034  20.292   4.948  0.00  0.00     0.219 HD
ENDBRANCH  16  22
ENDBRANCH   6  15
BRANCH   7  24
HETATM   24  C   UNK N   1      28.779  17.404   6.608  0.00  0.00     0.081 C 
HETATM   25  C   UNK N   1      28.900  17.524   8.131  0.00  0.00     0.044 C 
HETATM   26  C   UNK N   1      30.288  18.030   8.508  0.00  0.00     0.272 C 
HETATM   27  N   UNK N   1      31.306  17.106   8.016  0.00  0.00     0.084 N 
HETATM   28  C   UNK N   1      32.597  17.644   8.405  0.00  0.00     0.309 C 
HETATM   29  C   UNK N   1      31.266  17.097   6.555  0.00  0.00     0.272 C 
HETATM   30  C   UNK N   1      29.925  16.552   6.069  0.00  0.00     0.044 C 
ENDBRANCH   7  24
TORSDOF 5
ENDMDL
MODEL 7
REMARK VINA RESULT:      -6.5      2.640      9.463
REMARK  5 active torsions:
REMARK  status: ('A' for Active; 'I' for Inactive)
REMARK    1  A    between atoms: C_12  and  C_10 
REMARK    2  A    between atoms: C_15  and  C_10 
REMARK    3  A    between atoms: C_18  and  C_13 
REMARK    4  A    between atoms: O_27  and  C_15 
REMARK    5  A    between atoms: N_20  and  C_17 
REMARK       I    between atoms: N_26  and  C_18 
ROOT
HETATM    1  C   UNK N   1      36.244  14.277   7.766  0.00  0.00     0.045 C 
HETATM    2  C   UNK N   1      35.405  15.997   9.437  0.00  0.00     0.045 C 
HETATM    3  C   UNK N   1      34.545  12.725  10.437  0.00  0.00     0.171 A 
HETATM    4  C   UNK N   1      35.913  13.009  10.887  0.00  0.00     0.032 A 
HETATM    5  C   UNK N   1      36.487  13.961  10.170  0.00  0.00     0.065 A 
HETATM    6  C   UNK N   1      36.829  12.680  11.848  0.00  0.00     0.131 A 
HETATM    7  C   UNK N   1      33.181  13.822   8.708  0.00  0.00     0.225 C 
HETATM    8  C   UNK N   1      35.616  14.521   9.130  0.00  0.00     0.073 A 
HETATM    9  N   UNK N   1      37.726  14.230  10.619  0.00  0.00    -0.300 N 
HETATM   10  N   UNK N   1      37.939  13.436  11.668  0.00  0.00    -0.285 N 
ATOM     11  HN  UNK N   1      38.787  13.403  12.233  1.00  0.00     0.188 HD
HETATM   12  N   UNK N   1      34.396  13.714   9.356  0.00  0.00    -0.333 N 
HETATM   13  O   UNK N   1      32.285  13.054   9.035  0.00  0.00    -0.273 OA
HETATM   14  H   UNK N   1      38.355  14.887  10.243  0.00  0.00     0.186 HD
ENDROOT
BRANCH   6  15
HETATM   15  N   UNK N   1      36.636  11.761  12.914  0.00  0.00    -0.325 N 
HETATM   16  C   UNK N   1      36.859  12.082  14.144  0.00  0.00     0.117 C 
ATOM     17  HN  UNK N   1      36.310  10.818  12.701  1.00  0.00     0.169 HD
BRANCH  16  18
HETATM   18  C   UNK N   1      36.703  11.067  15.230  0.00  0.00     0.088 C 
BRANCH  18  19
HETATM   19  C   UNK N   1      35.307  11.110  15.835  0.00  0.00    -0.015 C 
HETATM   20  C   UNK N   1      35.301  12.097  16.983  0.00  0.00     0.010 C 
HETATM   21  C   UNK N   1      34.915   9.743  16.372  0.00  0.00     0.010 C 
ENDBRANCH  18  19
ENDBRANCH  16  18
BRANCH  16  22
HETATM   22  O   UNK N   1      37.191  13.346  14.483  0.00  0.00    -0.349 OA
HETATM   23  H   UNK N   1      36.902  13.958  15.131  0.00  0.00     0.219 HD
ENDBRANCH  16  22
ENDBRANCH   6  15
BRANCH   7  24
HETATM   24  C   UNK N   1      32.818  14.832   7.619  0.00  0.00     0.081 C 
HETATM   25  C   UNK N   1      32.434  14.079   6.341  0.00  0.00     0.044 C 
HETATM   26  C   UNK N   1      32.261  15.060   5.186  0.00  0.00     0.272 C 
HETATM   27  N   UNK N   1      31.216  16.028   5.507  0.00  0.00     0.084 N 
HETATM   28  C   UNK N   1      31.103  16.928   4.374  0.00  0.00     0.309 C 
HETATM   29  C   UNK N   1      31.650  16.827   6.651  0.00  0.00     0.272 C 
HETATM   30  C   UNK N   1      31.804  15.941   7.885  0.00  0.00     0.044 C 
ENDBRANCH   7  24
TORSDOF 5
ENDMDL
MODEL 8
REMARK VINA RESULT:      -6.5      7.087     13.365
REMARK  5 active torsions:
REMARK  status: ('A' for Active; 'I' for Inactive)
REMARK    1  A    between atoms: C_12  and  C_10 
REMARK    2  A    between atoms: C_15  and  C_10 
REMARK    3  A    between atoms: C_18  and  C_13 
REMARK    4  A    between atoms: O_27  and  C_15 
REMARK    5  A    between atoms: N_20  and  C_17 
REMARK       I    between atoms: N_26  and  C_18 
ROOT
HETATM    1  C   UNK N   1      27.262  15.880   5.295  0.00  0.00     0.045 C 
HETATM    2  C   UNK N   1      28.899  17.007   3.711  0.00  0.00     0.045 C 
HETATM    3  C   UNK N   1      29.473  17.993   7.050  0.00  0.00     0.171 A 
HETATM    4  C   UNK N   1      30.170  16.724   6.808  0.00  0.00     0.032 A 
HETATM    5  C   UNK N   1      29.640  16.046   5.804  0.00  0.00     0.065 A 
HETATM    6  C   UNK N   1      31.244  15.981   7.218  0.00  0.00     0.131 A 
HETATM    7  C   UNK N   1      27.630  19.054   5.812  0.00  0.00     0.225 C 
HETATM    8  C   UNK N   1      28.515  16.734   5.158  0.00  0.00     0.073 A 
HETATM    9  N   UNK N   1      30.313  14.904   5.577  0.00  0.00    -0.300 N 
HETATM   10  N   UNK N   1      31.316  14.864   6.454  0.00  0.00    -0.285 N 
ATOM     11  HN  UNK N   1      32.013  14.124   6.535  1.00  0.00     0.188 HD
HETATM   12  N   UNK N   1      28.465  17.965   5.976  0.00  0.00    -0.333 N 
HETATM   13  O   UNK N   1      27.738  19.985   6.600  0.00  0.00    -0.273 OA
HETATM   14  H   UNK N   1      30.104  14.227   4.894  0.00  0.00     0.186 HD
ENDROOT
BRANCH   6  15
HETATM   15  N   UNK N   1      32.184  16.343   8.218  0.00  0.00    -0.325 N 
HETATM   16  C   UNK N   1      33.331  16.859   7.927  0.00  0.00     0.117 C 
ATOM     17  HN  UNK N   1      31.945  16.191   9.198  1.00  0.00     0.169 HD
BRANCH  16  18
HETATM   18  C   UNK N   1      34.316  17.168   9.007  0.00  0.00     0.088 C 
BRANCH  18  19
HETATM   19  C   UNK N   1      34.656  15.927   9.821  0.00  0.00    -0.015 C 
HETATM   20  C   UNK N   1      35.467  16.342  11.030  0.00  0.00     0.010 C 
HETATM   21  C   UNK N   1      35.484  14.956   8.994  0.00  0.00     0.010 C 
ENDBRANCH  18  19
ENDBRANCH  16  18
BRANCH  16  22
HETATM   22  O   UNK N   1      33.647  17.174   6.653  0.00  0.00    -0.349 OA
HETATM   23  H   UNK N   1      34.113  17.871   6.237  0.00  0.00     0.219 HD
ENDBRANCH  16  22
ENDBRANCH   6  15
BRANCH   7  24
HETATM   24  C   UNK N   1      26.580  19.236   4.716  0.00  0.00     0.081 C 
HETATM   25  C   UNK N   1      25.183  19.098   5.329  0.00  0.00     0.044 C 
HETATM   26  C   UNK N   1      24.126  19.078   4.229  0.00  0.00     0.272 C 
HETATM   27  N   UNK N   1      24.192  20.314   3.453  0.00  0.00     0.084 N 
HETATM   28  C   UNK N   1      23.168  20.230   2.428  0.00  0.00     0.309 C 
HETATM   29  C   UNK N   1      25.482  20.373   2.770  0.00  0.00     0.272 C 
HETATM   30  C   UNK N   1      26.615  20.450   3.791  0.00  0.00     0.044 C 
ENDBRANCH   7  24
TORSDOF 5
ENDMDL
MODEL 9
REMARK VINA RESULT:      -6.4      2.145      8.917
REMARK  5 active torsions:
REMARK  status: ('A' for Active; 'I' for Inactive)
REMARK    1  A    between atoms: C_12  and  C_10 
REMARK    2  A    between atoms: C_15  and  C_10 
REMARK    3  A    between atoms: C_18  and  C_13 
REMARK    4  A    between atoms: O_27  and  C_15 
REMARK    5  A    between atoms: N_20  and  C_17 
REMARK       I    between atoms: N_26  and  C_18 
ROOT
HETATM    1  C   UNK N   1      36.078  11.723   9.805  0.00  0.00     0.045 C 
HETATM    2  C   UNK N   1      37.437  13.869   9.885  0.00  0.00     0.045 C 
HETATM    3  C   UNK N   1      34.899  13.874  12.336  0.00  0.00     0.171 A 
HETATM    4  C   UNK N   1      36.065  13.160  12.870  0.00  0.00     0.032 A 
HETATM    5  C   UNK N   1      36.841  12.685  11.910  0.00  0.00     0.065 A 
HETATM    6  C   UNK N   1      36.700  12.841  14.039  0.00  0.00     0.131 A 
HETATM    7  C   UNK N   1      34.291  14.412  10.014  0.00  0.00     0.225 C 
HETATM    8  C   UNK N   1      36.373  13.012  10.558  0.00  0.00     0.073 A 
HETATM    9  N   UNK N   1      37.921  12.063  12.418  0.00  0.00    -0.300 N 
HETATM   10  N   UNK N   1      37.837  12.164  13.745  0.00  0.00    -0.285 N 
ATOM     11  HN  UNK N   1      38.508  11.796  14.418  1.00  0.00     0.188 HD
HETATM   12  N   UNK N   1      35.151  13.778  10.888  0.00  0.00    -0.333 N 
HETATM   13  O   UNK N   1      33.322  14.997  10.483  0.00  0.00    -0.273 OA
HETATM   14  H   UNK N   1      38.635  11.619  11.908  0.00  0.00     0.186 HD
ENDROOT
BRANCH   6  15
HETATM   15  N   UNK N   1      36.294  13.217  15.346  0.00  0.00    -0.325 N 
HETATM   16  C   UNK N   1      35.184  12.808  15.864  0.00  0.00     0.117 C 
ATOM     17  HN  UNK N   1      36.899  13.828  15.895  1.00  0.00     0.169 HD
BRANCH  16  18
HETATM   18  C   UNK N   1      34.765  13.277  17.219  0.00  0.00     0.088 C 
BRANCH  18  19
HETATM   19  C   UNK N   1      35.499  12.524  18.319  0.00  0.00    -0.015 C 
HETATM   20  C   UNK N   1      35.185  11.047  18.195  0.00  0.00     0.010 C 
HETATM   21  C   UNK N   1      35.043  13.000  19.690  0.00  0.00     0.010 C 
ENDBRANCH  18  19
ENDBRANCH  16  18
BRANCH  16  22
HETATM   22  O   UNK N   1      34.403  11.917  15.217  0.00  0.00    -0.349 OA
HETATM   23  H   UNK N   1      33.538  11.580  15.339  0.00  0.00     0.219 HD
ENDBRANCH  16  22
ENDBRANCH   6  15
BRANCH   7  24
HETATM   24  C   UNK N   1      34.430  14.484   8.493  0.00  0.00     0.081 C 
HETATM   25  C   UNK N   1      33.169  13.907   7.843  0.00  0.00     0.044 C 
HETATM   26  C   UNK N   1      33.365  13.784   6.335  0.00  0.00     0.272 C 
HETATM   27  N   UNK N   1      33.644  15.098   5.761  0.00  0.00     0.084 N 
HETATM   28  C   UNK N   1      33.821  14.911   4.333  0.00  0.00     0.309 C 
HETATM   29  C   UNK N   1      34.917  15.583   6.293  0.00  0.00     0.272 C 
HETATM   30  C   UNK N   1      34.810  15.791   7.802  0.00  0.00     0.044 C 
ENDBRANCH   7  24
TORSDOF 5
ENDMDL
