MODEL 1
REMARK VINA RESULT:      -7.7      0.000      0.000
REMARK  8 active torsions:
REMARK  status: ('A' for Active; 'I' for Inactive)
REMARK    1  A    between atoms: C_3  and  N_27 
REMARK    2  A    between atoms: C_6  and  C_8 
REMARK    3  A    between atoms: C_9  and  C_8 
REMARK    4  A    between atoms: C_9  and  C_24 
REMARK    5  A    between atoms: C_12  and  O_15 
REMARK    6  A    between atoms: O_15  and  C_16 
REMARK    7  A    between atoms: C_24  and  O_26 
REMARK    8  A    between atoms: N_27  and  C_28 
ROOT
HETATM    1  C   UNK N   1      28.751  17.954   8.170  0.00  0.00     0.051 C 
HETATM    2  C   UNK N   1      28.058  19.290   7.845  0.00  0.00     0.023 C 
HETATM    3  C   UNK N   1      27.750  19.404   6.345  0.00  0.00     0.034 C 
HETATM    4  C   UNK N   1      26.834  18.264   5.904  0.00  0.00     0.129 C 
HETATM    5  C   UNK N   1      27.380  16.883   6.284  0.00  0.00     0.034 C 
HETATM    6  C   UNK N   1      27.801  16.816   7.748  0.00  0.00     0.023 C 
ENDROOT
BRANCH   1   7
HETATM    7  C   UNK N   1      30.113  17.973   7.440  0.00  0.00     0.077 C 
BRANCH   7   8
HETATM    8  C   UNK N   1      31.108  16.911   7.788  0.00  0.00     0.012 A 
HETATM    9  N   UNK N   1      32.045  17.105   8.756  0.00  0.00    -0.346 N 
HETATM   10  C   UNK N   1      33.004  16.160   9.010  0.00  0.00     0.107 A 
ATOM     11  HN  UNK N   1      32.035  17.967   9.301  1.00  0.00     0.167 HD
HETATM   12  C   UNK N   1      33.030  14.979   8.263  0.00  0.00     0.048 A 
HETATM   13  C   UNK N   1      32.086  14.774   7.265  0.00  0.00     0.006 A 
HETATM   14  C   UNK N   1      31.130  15.750   7.016  0.00  0.00     0.025 A 
BRANCH  10  15
HETATM   15  N   UNK N   1      34.008  16.365   9.987  0.00  0.00    -0.323 N 
HETATM   16  H   UNK N   1      34.223  17.295  10.229  0.00  0.00     0.169 HD
BRANCH  15  17
HETATM   17  C   UNK N   1      34.729  15.338  10.643  0.00  0.00     0.149 A 
HETATM   18  S   UNK N   1      36.355  15.128  10.549  0.00  0.00    -0.064 SA
HETATM   19  C   UNK N   1      36.467  13.787  11.516  0.00  0.00     0.070 A 
HETATM   20  C   UNK N   1      35.143  13.512  11.917  0.00  0.00     0.097 A 
HETATM   21  N   UNK N   1      34.187  14.379  11.428  0.00  0.00    -0.346 N 
ATOM     22  HN  UNK N   1      33.190  14.306  11.633  1.00  0.00     0.167 HD
ENDBRANCH  15  17
ENDBRANCH  10  15
ENDBRANCH   7   8
ENDBRANCH   1   7
BRANCH   1  23
HETATM   23  C   UNK N   1      29.001  17.806   9.653  0.00  0.00     0.149 C 
HETATM   24  O   UNK N   1      28.555  16.852  10.273  0.00  0.00    -0.649 OA
BRANCH  23  25
HETATM   25  O   UNK N   1      29.733  18.732  10.305  0.00  0.00    -0.776 OA
HETATM   26  H   UNK N   1      30.572  19.054  10.040  0.00  0.00     0.167 HD
ENDBRANCH  23  25
ENDBRANCH   1  23
BRANCH   4  27
HETATM   27  O   UNK N   1      26.472  18.390   4.564  0.00  0.00    -0.343 OA
BRANCH  27  28
HETATM   28  C   UNK N   1      25.375  19.010   4.033  0.00  0.00     0.109 A 
HETATM   29  C   UNK N   1      24.098  18.502   4.320  0.00  0.00     0.171 A 
HETATM   30  C   UNK N   1      22.954  19.110   3.775  0.00  0.00     0.075 A 
HETATM   31  F   UNK N   1      23.970  17.419   5.128  0.00  0.00    -0.201 F 
HETATM   32  C   UNK N   1      23.082  20.223   2.942  0.00  0.00     0.027 A 
HETATM   33 Cl   UNK N   1      21.356  18.483   4.128  0.00  0.00    -0.081 Cl
HETATM   34  C   UNK N   1      24.346  20.737   2.656  0.00  0.00     0.005 A 
HETATM   35  C   UNK N   1      25.482  20.137   3.201  0.00  0.00     0.040 A 
ENDBRANCH  27  28
ENDBRANCH   4  27
TORSDOF 8
ENDMDL
MODEL 2
REMARK VINA RESULT:      -7.7      2.634      3.925
REMARK  8 active torsions:
REMARK  status: ('A' for Active; 'I' for Inactive)
REMARK    1  A    between atoms: C_3  and  N_27 
REMARK    2  A    between atoms: C_6  and  C_8 
REMARK    3  A    between atoms: C_9  and  C_8 
REMARK    4  A    between atoms: C_9  and  C_24 
REMARK    5  A    between atoms: C_12  and  O_15 
REMARK    6  A    between atoms: O_15  and  C_16 
REMARK    7  A    between atoms: C_24  and  O_26 
REMARK    8  A    between atoms: N_27  and  C_28 
ROOT
HETATM    1  C   UNK N   1      28.356  17.336   4.509  0.00  0.00     0.051 C 
HETATM    2  C   UNK N   1      27.234  16.808   3.596  0.00  0.00     0.023 C 
HETATM    3  C   UNK N   1      25.850  17.066   4.212  0.00  0.00     0.034 C 
HETATM    4  C   UNK N   1      25.636  18.563   4.425  0.00  0.00     0.129 C 
HETATM    5  C   UNK N   1      26.764  19.216   5.231  0.00  0.00     0.034 C 
HETATM    6  C   UNK N   1      28.143  18.853   4.687  0.00  0.00     0.023 C 
ENDROOT
BRANCH   1   7
HETATM    7  C   UNK N   1      28.292  16.509   5.813  0.00  0.00     0.077 C 
BRANCH   7   8
HETATM    8  C   UNK N   1      28.782  17.151   7.072  0.00  0.00     0.012 A 
HETATM    9  N   UNK N   1      30.106  17.391   7.280  0.00  0.00    -0.346 N 
HETATM   10  C   UNK N   1      30.554  17.902   8.469  0.00  0.00     0.107 A 
ATOM     11  HN  UNK N   1      30.776  17.188   6.538  1.00  0.00     0.167 HD
HETATM   12  C   UNK N   1      29.643  18.177   9.493  0.00  0.00     0.048 A 
HETATM   13  C   UNK N   1      28.291  17.927   9.298  0.00  0.00     0.006 A 
HETATM   14  C   UNK N   1      27.860  17.397   8.088  0.00  0.00     0.025 A 
BRANCH  10  15
HETATM   15  N   UNK N   1      31.932  18.120   8.712  0.00  0.00    -0.323 N 
HETATM   16  H   UNK N   1      32.200  19.012   9.032  0.00  0.00     0.169 HD
BRANCH  15  17
HETATM   17  C   UNK N   1      32.954  17.158   8.531  0.00  0.00     0.149 A 
HETATM   18  S   UNK N   1      33.917  17.053   7.205  0.00  0.00    -0.064 SA
HETATM   19  C   UNK N   1      34.815  15.744   7.679  0.00  0.00     0.070 A 
HETATM   20  C   UNK N   1      34.309  15.392   8.948  0.00  0.00     0.097 A 
HETATM   21  N   UNK N   1      33.277  16.183   9.411  0.00  0.00    -0.346 N 
ATOM     22  HN  UNK N   1      32.813  16.049  10.310  1.00  0.00     0.167 HD
ENDBRANCH  15  17
ENDBRANCH  10  15
ENDBRANCH   7   8
ENDBRANCH   1   7
BRANCH   1  23
HETATM   23  C   UNK N   1      29.717  17.143   3.881  0.00  0.00     0.149 C 
HETATM   24  O   UNK N   1      29.886  16.326   2.988  0.00  0.00    -0.649 OA
BRANCH  23  25
HETATM   25  O   UNK N   1      30.760  17.887   4.300  0.00  0.00    -0.776 OA
HETATM   26  H   UNK N   1      31.659  17.744   4.080  0.00  0.00     0.167 HD
ENDBRANCH  23  25
ENDBRANCH   1  23
BRANCH   4  27
HETATM   27  O   UNK N   1      24.356  18.831   4.906  0.00  0.00    -0.343 OA
BRANCH  27  28
HETATM   28  C   UNK N   1      23.156  18.662   4.274  0.00  0.00     0.109 A 
HETATM   29  C   UNK N   1      22.711  19.649   3.379  0.00  0.00     0.171 A 
HETATM   30  C   UNK N   1      21.474  19.509   2.727  0.00  0.00     0.075 A 
HETATM   31  F   UNK N   1      23.480  20.742   3.144  0.00  0.00    -0.201 F 
HETATM   32  C   UNK N   1      20.678  18.387   2.968  0.00  0.00     0.027 A 
HETATM   33 Cl   UNK N   1      20.910  20.735   1.609  0.00  0.00    -0.081 Cl
HETATM   34  C   UNK N   1      21.115  17.400   3.850  0.00  0.00     0.005 A 
HETATM   35  C   UNK N   1      22.345  17.536   4.494  0.00  0.00     0.040 A 
ENDBRANCH  27  28
ENDBRANCH   4  27
TORSDOF 8
ENDMDL
MODEL 3
REMARK VINA RESULT:      -7.6      2.638      4.010
REMARK  8 active torsions:
REMARK  status: ('A' for Active; 'I' for Inactive)
REMARK    1  A    between atoms: C_3  and  N_27 
REMARK    2  A    between atoms: C_6  and  C_8 
REMARK    3  A    between atoms: C_9  and  C_8 
REMARK    4  A    between atoms: C_9  and  C_24 
REMARK    5  A    between atoms: C_12  and  O_15 
REMARK    6  A    between atoms: O_15  and  C_16 
REMARK    7  A    between atoms: C_24  and  O_26 
REMARK    8  A    between atoms: N_27  and  C_28 
ROOT
HETATM    1  C   UNK N   1      32.455  17.354   7.965  0.00  0.00     0.051 C 
HETATM    2  C   UNK N   1      31.924  17.102   6.541  0.00  0.00     0.023 C 
HETATM    3  C   UNK N   1      30.456  16.651   6.569  0.00  0.00     0.034 C 
HETATM    4  C   UNK N   1      29.586  17.720   7.228  0.00  0.00     0.129 C 
HETATM    5  C   UNK N   1      30.096  18.130   8.614  0.00  0.00     0.034 C 
HETATM    6  C   UNK N   1      31.587  18.456   8.603  0.00  0.00     0.023 C 
ENDROOT
BRANCH   1   7
HETATM    7  C   UNK N   1      32.424  15.992   8.696  0.00  0.00     0.077 C 
BRANCH   7   8
HETATM    8  C   UNK N   1      33.729  15.397   9.120  0.00  0.00     0.012 A 
HETATM    9  N   UNK N   1      34.276  15.674  10.336  0.00  0.00    -0.346 N 
HETATM   10  C   UNK N   1      35.511  15.191  10.682  0.00  0.00     0.107 A 
ATOM     11  HN  UNK N   1      33.759  16.248  11.001  1.00  0.00     0.167 HD
HETATM   12  C   UNK N   1      36.229  14.408   9.775  0.00  0.00     0.048 A 
HETATM   13  C   UNK N   1      35.688  14.127   8.526  0.00  0.00     0.006 A 
HETATM   14  C   UNK N   1      34.439  14.637   8.191  0.00  0.00     0.025 A 
BRANCH  10  15
HETATM   15  N   UNK N   1      36.107  15.502  11.928  0.00  0.00    -0.323 N 
HETATM   16  H   UNK N   1      36.530  16.387  12.019  0.00  0.00     0.169 HD
BRANCH  15  17
HETATM   17  C   UNK N   1      36.146  14.642  13.051  0.00  0.00     0.149 A 
HETATM   18  S   UNK N   1      35.301  13.240  13.187  0.00  0.00    -0.064 SA
HETATM   19  C   UNK N   1      35.814  12.812  14.703  0.00  0.00     0.070 A 
HETATM   20  C   UNK N   1      36.691  13.842  15.098  0.00  0.00     0.097 A 
HETATM   21  N   UNK N   1      36.869  14.853  14.174  0.00  0.00    -0.346 N 
ATOM     22  HN  UNK N   1      37.473  15.661  14.321  1.00  0.00     0.167 HD
ENDBRANCH  15  17
ENDBRANCH  10  15
ENDBRANCH   7   8
ENDBRANCH   1   7
BRANCH   1  23
HETATM   23  C   UNK N   1      33.879  17.858   7.943  0.00  0.00     0.149 C 
HETATM   24  O   UNK N   1      34.418  18.262   8.963  0.00  0.00    -0.649 OA
BRANCH  23  25
HETATM   25  O   UNK N   1      34.573  17.854   6.788  0.00  0.00    -0.776 OA
HETATM   26  H   UNK N   1      34.210  17.760   5.929  0.00  0.00     0.167 HD
ENDBRANCH  23  25
ENDBRANCH   1  23
BRANCH   4  27
HETATM   27  O   UNK N   1      28.237  17.372   7.191  0.00  0.00    -0.343 OA
BRANCH  27  28
HETATM   28  C   UNK N   1      27.377  17.408   6.129  0.00  0.00     0.109 A 
HETATM   29  C   UNK N   1      27.209  18.612   5.426  0.00  0.00     0.171 A 
HETATM   30  C   UNK N   1      26.320  18.681   4.340  0.00  0.00     0.075 A 
HETATM   31  F   UNK N   1      27.910  19.713   5.799  0.00  0.00    -0.201 F 
HETATM   32  C   UNK N   1      25.596  17.551   3.955  0.00  0.00     0.027 A 
HETATM   33 Cl   UNK N   1      26.104  20.180   3.457  0.00  0.00    -0.081 Cl
HETATM   34  C   UNK N   1      25.760  16.351   4.643  0.00  0.00     0.005 A 
HETATM   35  C   UNK N   1      26.646  16.280   5.719  0.00  0.00     0.040 A 
ENDBRANCH  27  28
ENDBRANCH   4  27
TORSDOF 8
ENDMDL
MODEL 4
REMARK VINA RESULT:      -7.6      9.541     14.154
REMARK  8 active torsions:
REMARK  status: ('A' for Active; 'I' for Inactive)
REMARK    1  A    between atoms: C_3  and  N_27 
REMARK    2  A    between atoms: C_6  and  C_8 
REMARK    3  A    between atoms: C_9  and  C_8 
REMARK    4  A    between atoms: C_9  and  C_24 
REMARK    5  A    between atoms: C_12  and  O_15 
REMARK    6  A    between atoms: O_15  and  C_16 
REMARK    7  A    between atoms: C_24  and  O_26 
REMARK    8  A    between atoms: N_27  and  C_28 
ROOT
HETATM    1  C   UNK N   1      35.685  12.260  15.205  0.00  0.00     0.051 C 
HETATM    2  C   UNK N   1      34.593  11.183  15.071  0.00  0.00     0.023 C 
HETATM    3  C   UNK N   1      34.797  10.057  16.097  0.00  0.00     0.034 C 
HETATM    4  C   UNK N   1      34.751  10.619  17.517  0.00  0.00     0.129 C 
HETATM    5  C   UNK N   1      35.727  11.782  17.726  0.00  0.00     0.034 C 
HETATM    6  C   UNK N   1      35.605  12.838  16.632  0.00  0.00     0.023 C 
ENDROOT
BRANCH   1   7
HETATM    7  C   UNK N   1      37.026  11.577  14.850  0.00  0.00     0.077 C 
BRANCH   7   8
HETATM    8  C   UNK N   1      37.417  11.512  13.409  0.00  0.00     0.012 A 
HETATM    9  N   UNK N   1      37.502  12.635  12.643  0.00  0.00    -0.346 N 
HETATM   10  C   UNK N   1      37.780  12.558  11.304  0.00  0.00     0.107 A 
ATOM     11  HN  UNK N   1      37.359  13.549  13.073  1.00  0.00     0.167 HD
HETATM   12  C   UNK N   1      37.972  11.310  10.705  0.00  0.00     0.048 A 
HETATM   13  C   UNK N   1      37.876  10.156  11.473  0.00  0.00     0.006 A 
HETATM   14  C   UNK N   1      37.582  10.256  12.827  0.00  0.00     0.025 A 
BRANCH  10  15
HETATM   15  N   UNK N   1      37.834  13.715  10.489  0.00  0.00    -0.323 N 
HETATM   16  H   UNK N   1      38.645  13.849   9.947  0.00  0.00     0.169 HD
BRANCH  15  17
HETATM   17  C   UNK N   1      36.816  14.694  10.393  0.00  0.00     0.149 A 
HETATM   18  S   UNK N   1      35.772  14.839   9.135  0.00  0.00    -0.064 SA
HETATM   19  C   UNK N   1      34.924  16.149   9.693  0.00  0.00     0.070 A 
HETATM   20  C   UNK N   1      35.515  16.467  10.933  0.00  0.00     0.097 A 
HETATM   21  N   UNK N   1      36.564  15.653  11.313  0.00  0.00    -0.346 N 
ATOM     22  HN  UNK N   1      37.085  15.761  12.183  1.00  0.00     0.167 HD
ENDBRANCH  15  17
ENDBRANCH  10  15
ENDBRANCH   7   8
ENDBRANCH   1   7
BRANCH   1  23
HETATM   23  C   UNK N   1      35.456  13.402  14.243  0.00  0.00     0.149 C 
HETATM   24  O   UNK N   1      34.579  13.341  13.393  0.00  0.00    -0.649 OA
BRANCH  23  25
HETATM   25  O   UNK N   1      36.219  14.510  14.324  0.00  0.00    -0.776 OA
HETATM   26  H   UNK N   1      36.655  14.930  13.609  0.00  0.00     0.167 HD
ENDBRANCH  23  25
ENDBRANCH   1  23
BRANCH   4  27
HETATM   27  O   UNK N   1      34.851   9.606  18.468  0.00  0.00    -0.343 OA
BRANCH  27  28
HETATM   28  C   UNK N   1      33.954   9.258  19.439  0.00  0.00     0.109 A 
HETATM   29  C   UNK N   1      33.873  10.037  20.605  0.00  0.00     0.171 A 
HETATM   30  C   UNK N   1      32.971   9.695  21.626  0.00  0.00     0.075 A 
HETATM   31  F   UNK N   1      34.671  11.127  20.744  0.00  0.00    -0.201 F 
HETATM   32  C   UNK N   1      32.150   8.573  21.488  0.00  0.00     0.027 A 
HETATM   33 Cl   UNK N   1      32.863  10.661  23.084  0.00  0.00    -0.081 Cl
HETATM   34  C   UNK N   1      32.220   7.797  20.332  0.00  0.00     0.005 A 
HETATM   35  C   UNK N   1      33.112   8.140  19.316  0.00  0.00     0.040 A 
ENDBRANCH  27  28
ENDBRANCH   4  27
TORSDOF 8
ENDMDL
MODEL 5
REMARK VINA RESULT:      -7.5      2.828      4.217
REMARK  8 active torsions:
REMARK  status: ('A' for Active; 'I' for Inactive)
REMARK    1  A    between atoms: C_3  and  N_27 
REMARK    2  A    between atoms: C_6  and  C_8 
REMARK    3  A    between atoms: C_9  and  C_8 
REMARK    4  A    between atoms: C_9  and  C_24 
REMARK    5  A    between atoms: C_12  and  O_15 
REMARK    6  A    between atoms: O_15  and  C_16 
REMARK    7  A    between atoms: C_24  and  O_26 
REMARK    8  A    between atoms: N_27  and  C_28 
ROOT
HETATM    1  C   UNK N   1      32.599  16.627   8.293  0.00  0.00     0.051 C 
HETATM    2  C   UNK N   1      32.396  16.411   6.782  0.00  0.00     0.023 C 
HETATM    3  C   UNK N   1      30.903  16.311   6.433  0.00  0.00     0.034 C 
HETATM    4  C   UNK N   1      30.177  17.591   6.841  0.00  0.00     0.129 C 
HETATM    5  C   UNK N   1      30.408  17.962   8.310  0.00  0.00     0.034 C 
HETATM    6  C   UNK N   1      31.887  17.937   8.682  0.00  0.00     0.023 C 
ENDROOT
BRANCH   1   7
HETATM    7  C   UNK N   1      32.065  15.358   8.997  0.00  0.00     0.077 C 
BRANCH   7   8
HETATM    8  C   UNK N   1      33.018  14.228   9.218  0.00  0.00     0.012 A 
HETATM    9  N   UNK N   1      33.792  14.157  10.336  0.00  0.00    -0.346 N 
HETATM   10  C   UNK N   1      34.722  13.163  10.491  0.00  0.00     0.107 A 
ATOM     11  HN  UNK N   1      33.677  14.855  11.072  1.00  0.00     0.167 HD
HETATM   12  C   UNK N   1      34.890  12.207   9.486  0.00  0.00     0.048 A 
HETATM   13  C   UNK N   1      34.115  12.274   8.335  0.00  0.00     0.006 A 
HETATM   14  C   UNK N   1      33.186  13.297   8.193  0.00  0.00     0.025 A 
BRANCH  10  15
HETATM   15  N   UNK N   1      35.559  13.101  11.631  0.00  0.00    -0.323 N 
HETATM   16  H   UNK N   1      36.504  13.353  11.515  0.00  0.00     0.169 HD
BRANCH  15  17
HETATM   17  C   UNK N   1      35.146  12.702  12.925  0.00  0.00     0.149 A 
HETATM   18  S   UNK N   1      35.631  13.412  14.324  0.00  0.00    -0.064 SA
HETATM   19  C   UNK N   1      34.789  12.445  15.374  0.00  0.00     0.070 A 
HETATM   20  C   UNK N   1      34.103  11.525  14.555  0.00  0.00     0.097 A 
HETATM   21  N   UNK N   1      34.307  11.676  13.198  0.00  0.00    -0.346 N 
ATOM     22  HN  UNK N   1      33.877  11.086  12.486  1.00  0.00     0.167 HD
ENDBRANCH  15  17
ENDBRANCH  10  15
ENDBRANCH   7   8
ENDBRANCH   1   7
BRANCH   1  23
HETATM   23  C   UNK N   1      34.062  16.789   8.637  0.00  0.00     0.149 C 
HETATM   24  O   UNK N   1      34.930  16.573   7.805  0.00  0.00    -0.649 OA
BRANCH  23  25
HETATM   25  O   UNK N   1      34.419  17.189   9.874  0.00  0.00    -0.776 OA
HETATM   26  H   UNK N   1      34.320  16.691  10.661  0.00  0.00     0.167 HD
ENDBRANCH  23  25
ENDBRANCH   1  23
BRANCH   4  27
HETATM   27  O   UNK N   1      28.837  17.560   6.460  0.00  0.00    -0.343 OA
BRANCH  27  28
HETATM   28  C   UNK N   1      28.117  18.514   5.797  0.00  0.00     0.109 A 
HETATM   29  C   UNK N   1      27.569  19.584   6.523  0.00  0.00     0.171 A 
HETATM   30  C   UNK N   1      26.812  20.571   5.870  0.00  0.00     0.075 A 
HETATM   31  F   UNK N   1      27.773  19.663   7.863  0.00  0.00    -0.201 F 
HETATM   32  C   UNK N   1      26.599  20.492   4.492  0.00  0.00     0.027 A 
HETATM   33 Cl   UNK N   1      26.124  21.910   6.768  0.00  0.00    -0.081 Cl
HETATM   34  C   UNK N   1      27.143  19.437   3.762  0.00  0.00     0.005 A 
HETATM   35  C   UNK N   1      27.899  18.459   4.410  0.00  0.00     0.040 A 
ENDBRANCH  27  28
ENDBRANCH   4  27
TORSDOF 8
ENDMDL
MODEL 6
REMARK VINA RESULT:      -7.4      6.762     12.507
REMARK  8 active torsions:
REMARK  status: ('A' for Active; 'I' for Inactive)
REMARK    1  A    between atoms: C_3  and  N_27 
REMARK    2  A    between atoms: C_6  and  C_8 
REMARK    3  A    between atoms: C_9  and  C_8 
REMARK    4  A    between atoms: C_9  and  C_24 
REMARK    5  A    between atoms: C_12  and  O_15 
REMARK    6  A    between atoms: O_15  and  C_16 
REMARK    7  A    between atoms: C_24  and  O_26 
REMARK    8  A    between atoms: N_27  and  C_28 
ROOT
HETATM    1  C   UNK N   1      35.916  14.052  11.655  0.00  0.00     0.051 C 
HETATM    2  C   UNK N   1      36.345  14.361  13.101  0.00  0.00     0.023 C 
HETATM    3  C   UNK N   1      35.525  13.543  14.110  0.00  0.00     0.034 C 
HETATM    4  C   UNK N   1      35.714  12.048  13.858  0.00  0.00     0.129 C 
HETATM    5  C   UNK N   1      35.421  11.649  12.408  0.00  0.00     0.034 C 
HETATM    6  C   UNK N   1      36.142  12.548  11.408  0.00  0.00     0.023 C 
ENDROOT
BRANCH   1   7
HETATM    7  C   UNK N   1      34.450  14.524  11.518  0.00  0.00     0.077 C 
BRANCH   7   8
HETATM    8  C   UNK N   1      33.909  14.734  10.140  0.00  0.00     0.012 A 
HETATM    9  N   UNK N   1      33.363  15.922   9.763  0.00  0.00    -0.346 N 
HETATM   10  C   UNK N   1      32.795  16.079   8.526  0.00  0.00     0.107 A 
ATOM     11  HN  UNK N   1      33.376  16.710  10.411  1.00  0.00     0.167 HD
HETATM   12  C   UNK N   1      32.767  15.003   7.634  0.00  0.00     0.048 A 
HETATM   13  C   UNK N   1      33.311  13.781   8.010  0.00  0.00     0.006 A 
HETATM   14  C   UNK N   1      33.871  13.641   9.273  0.00  0.00     0.025 A 
BRANCH  10  15
HETATM   15  N   UNK N   1      32.189  17.297   8.136  0.00  0.00    -0.323 N 
HETATM   16  H   UNK N   1      32.743  17.939   7.635  0.00  0.00     0.169 HD
BRANCH  15  17
HETATM   17  C   UNK N   1      30.850  17.667   8.410  0.00  0.00     0.149 A 
HETATM   18  S   UNK N   1      29.561  17.281   7.469  0.00  0.00    -0.064 SA
HETATM   19  C   UNK N   1      28.389  18.029   8.371  0.00  0.00     0.070 A 
HETATM   20  C   UNK N   1      29.077  18.605   9.460  0.00  0.00     0.097 A 
HETATM   21  N   UNK N   1      30.441  18.398   9.471  0.00  0.00    -0.346 N 
ATOM     22  HN  UNK N   1      31.067  18.753  10.195  1.00  0.00     0.167 HD
ENDBRANCH  15  17
ENDBRANCH  10  15
ENDBRANCH   7   8
ENDBRANCH   1   7
BRANCH   1  23
HETATM   23  C   UNK N   1      36.761  14.806  10.654  0.00  0.00     0.149 C 
HETATM   24  O   UNK N   1      37.268  14.231   9.702  0.00  0.00    -0.649 OA
BRANCH  23  25
HETATM   25  O   UNK N   1      36.952  16.132  10.802  0.00  0.00    -0.776 OA
HETATM   26  H   UNK N   1      36.766  16.630  11.574  0.00  0.00     0.167 HD
ENDBRANCH  23  25
ENDBRANCH   1  23
BRANCH   4  27
HETATM   27  O   UNK N   1      35.045  11.283  14.811  0.00  0.00    -0.343 OA
BRANCH  27  28
HETATM   28  C   UNK N   1      35.492  10.867  16.035  0.00  0.00     0.109 A 
HETATM   29  C   UNK N   1      35.201  11.644  17.168  0.00  0.00     0.171 A 
HETATM   30  C   UNK N   1      35.661  11.249  18.435  0.00  0.00     0.075 A 
HETATM   31  F   UNK N   1      34.473  12.782  17.036  0.00  0.00    -0.201 F 
HETATM   32  C   UNK N   1      36.413  10.081  18.575  0.00  0.00     0.027 A 
HETATM   33 Cl   UNK N   1      35.303  12.212  19.855  0.00  0.00    -0.081 Cl
HETATM   34  C   UNK N   1      36.701   9.301  17.457  0.00  0.00     0.005 A 
HETATM   35  C   UNK N   1      36.241   9.690  16.199  0.00  0.00     0.040 A 
ENDBRANCH  27  28
ENDBRANCH   4  27
TORSDOF 8
ENDMDL
MODEL 7
REMARK VINA RESULT:      -7.3      3.346      4.685
REMARK  8 active torsions:
REMARK  status: ('A' for Active; 'I' for Inactive)
REMARK    1  A    between atoms: C_3  and  N_27 
REMARK    2  A    between atoms: C_6  and  C_8 
REMARK    3  A    between atoms: C_9  and  C_8 
REMARK    4  A    between atoms: C_9  and  C_24 
REMARK    5  A    between atoms: C_12  and  O_15 
REMARK    6  A    between atoms: O_15  and  C_16 
REMARK    7  A    between atoms: C_24  and  O_26 
REMARK    8  A    between atoms: N_27  and  C_28 
ROOT
HETATM    1  C   UNK N   1      33.841  17.113   7.780  0.00  0.00     0.051 C 
HETATM    2  C   UNK N   1      33.643  17.908   6.476  0.00  0.00     0.023 C 
HETATM    3  C   UNK N   1      32.715  17.160   5.507  0.00  0.00     0.034 C 
HETATM    4  C   UNK N   1      31.348  16.935   6.149  0.00  0.00     0.129 C 
HETATM    5  C   UNK N   1      31.439  16.248   7.516  0.00  0.00     0.034 C 
HETATM    6  C   UNK N   1      32.456  16.922   8.431  0.00  0.00     0.023 C 
ENDROOT
BRANCH   1   7
HETATM    7  C   UNK N   1      34.567  15.804   7.395  0.00  0.00     0.077 C 
BRANCH   7   8
HETATM    8  C   UNK N   1      34.655  14.724   8.425  0.00  0.00     0.012 A 
HETATM    9  N   UNK N   1      35.696  14.657   9.300  0.00  0.00    -0.346 N 
HETATM   10  C   UNK N   1      35.811  13.617  10.184  0.00  0.00     0.107 A 
ATOM     11  HN  UNK N   1      36.402  15.393   9.298  1.00  0.00     0.167 HD
HETATM   12  C   UNK N   1      34.851  12.602  10.190  0.00  0.00     0.048 A 
HETATM   13  C   UNK N   1      33.790  12.651   9.295  0.00  0.00     0.006 A 
HETATM   14  C   UNK N   1      33.699  13.708   8.398  0.00  0.00     0.025 A 
BRANCH  10  15
HETATM   15  N   UNK N   1      36.909  13.516  11.073  0.00  0.00    -0.323 N 
HETATM   16  H   UNK N   1      37.811  13.498  10.679  0.00  0.00     0.169 HD
BRANCH  15  17
HETATM   17  C   UNK N   1      36.811  13.436  12.483  0.00  0.00     0.149 A 
HETATM   18  S   UNK N   1      36.886  12.043  13.350  0.00  0.00    -0.064 SA
HETATM   19  C   UNK N   1      36.693  12.703  14.857  0.00  0.00     0.070 A 
HETATM   20  C   UNK N   1      36.564  14.090  14.637  0.00  0.00     0.097 A 
HETATM   21  N   UNK N   1      36.631  14.486  13.316  0.00  0.00    -0.346 N 
ATOM     22  HN  UNK N   1      36.555  15.455  13.005  1.00  0.00     0.167 HD
ENDBRANCH  15  17
ENDBRANCH  10  15
ENDBRANCH   7   8
ENDBRANCH   1   7
BRANCH   1  23
HETATM   23  C   UNK N   1      34.701  17.870   8.765  0.00  0.00     0.149 C 
HETATM   24  O   UNK N   1      34.919  17.424   9.882  0.00  0.00    -0.649 OA
BRANCH  23  25
HETATM   25  O   UNK N   1      35.247  19.050   8.408  0.00  0.00    -0.776 OA
HETATM   26  H   UNK N   1      35.222  19.841   8.910  0.00  0.00     0.167 HD
ENDBRANCH  23  25
ENDBRANCH   1  23
BRANCH   4  27
HETATM   27  O   UNK N   1      30.460  16.332   5.260  0.00  0.00    -0.343 OA
BRANCH  27  28
HETATM   28  C   UNK N   1      29.281  16.821   4.771  0.00  0.00     0.109 A 
HETATM   29  C   UNK N   1      28.538  16.038   3.872  0.00  0.00     0.171 A 
HETATM   30  C   UNK N   1      27.331  16.522   3.341  0.00  0.00     0.075 A 
HETATM   31  F   UNK N   1      28.991  14.809   3.514  0.00  0.00    -0.201 F 
HETATM   32  C   UNK N   1      26.863  17.787   3.703  0.00  0.00     0.027 A 
HETATM   33 Cl   UNK N   1      26.397  15.553   2.218  0.00  0.00    -0.081 Cl
HETATM   34  C   UNK N   1      27.590  18.568   4.599  0.00  0.00     0.005 A 
HETATM   35  C   UNK N   1      28.787  18.086   5.131  0.00  0.00     0.040 A 
ENDBRANCH  27  28
ENDBRANCH   4  27
TORSDOF 8
ENDMDL
MODEL 8
REMARK VINA RESULT:      -7.3      4.311      7.401
REMARK  8 active torsions:
REMARK  status: ('A' for Active; 'I' for Inactive)
REMARK    1  A    between atoms: C_3  and  N_27 
REMARK    2  A    between atoms: C_6  and  C_8 
REMARK    3  A    between atoms: C_9  and  C_8 
REMARK    4  A    between atoms: C_9  and  C_24 
REMARK    5  A    between atoms: C_12  and  O_15 
REMARK    6  A    between atoms: O_15  and  C_16 
REMARK    7  A    between atoms: C_24  and  O_26 
REMARK    8  A    between atoms: N_27  and  C_28 
ROOT
HETATM    1  C   UNK N   1      33.323  16.575   6.696  0.00  0.00     0.051 C 
HETATM    2  C   UNK N   1      34.031  15.392   6.010  0.00  0.00     0.023 C 
HETATM    3  C   UNK N   1      33.102  14.699   5.002  0.00  0.00     0.034 C 
HETATM    4  C   UNK N   1      32.658  15.688   3.925  0.00  0.00     0.129 C 
HETATM    5  C   UNK N   1      32.039  16.963   4.508  0.00  0.00     0.034 C 
HETATM    6  C   UNK N   1      32.910  17.577   5.600  0.00  0.00     0.023 C 
ENDROOT
BRANCH   1   7
HETATM    7  C   UNK N   1      32.153  15.978   7.511  0.00  0.00     0.077 C 
BRANCH   7   8
HETATM    8  C   UNK N   1      31.015  16.882   7.864  0.00  0.00     0.012 A 
HETATM    9  N   UNK N   1      29.830  16.827   7.196  0.00  0.00    -0.346 N 
HETATM   10  C   UNK N   1      28.822  17.714   7.469  0.00  0.00     0.107 A 
ATOM     11  HN  UNK N   1      29.688  16.114   6.481  1.00  0.00     0.167 HD
HETATM   12  C   UNK N   1      29.010  18.698   8.444  0.00  0.00     0.048 A 
HETATM   13  C   UNK N   1      30.219  18.773   9.125  0.00  0.00     0.006 A 
HETATM   14  C   UNK N   1      31.231  17.871   8.823  0.00  0.00     0.025 A 
BRANCH  10  15
HETATM   15  N   UNK N   1      27.599  17.693   6.756  0.00  0.00    -0.323 N 
HETATM   16  H   UNK N   1      26.988  16.940   6.927  0.00  0.00     0.169 HD
BRANCH  15  17
HETATM   17  C   UNK N   1      27.186  18.667   5.816  0.00  0.00     0.149 A 
HETATM   18  S   UNK N   1      27.704  18.744   4.260  0.00  0.00    -0.064 SA
HETATM   19  C   UNK N   1      26.844  20.085   3.801  0.00  0.00     0.070 A 
HETATM   20  C   UNK N   1      26.124  20.470   4.951  0.00  0.00     0.097 A 
HETATM   21  N   UNK N   1      26.321  19.677   6.063  0.00  0.00    -0.346 N 
ATOM     22  HN  UNK N   1      25.868  19.832   6.964  1.00  0.00     0.167 HD
ENDBRANCH  15  17
ENDBRANCH  10  15
ENDBRANCH   7   8
ENDBRANCH   1   7
BRANCH   1  23
HETATM   23  C   UNK N   1      34.250  17.300   7.644  0.00  0.00     0.149 C 
HETATM   24  O   UNK N   1      34.680  18.412   7.374  0.00  0.00    -0.649 OA
BRANCH  23  25
HETATM   25  O   UNK N   1      34.603  16.723   8.809  0.00  0.00    -0.776 OA
HETATM   26  H   UNK N   1      34.759  17.169   9.618  0.00  0.00     0.167 HD
ENDBRANCH  23  25
ENDBRANCH   1  23
BRANCH   4  27
HETATM   27  O   UNK N   1      31.881  15.065   2.951  0.00  0.00    -0.343 OA
BRANCH  27  28
HETATM   28  C   UNK N   1      30.634  14.518   3.078  0.00  0.00     0.109 A 
HETATM   29  C   UNK N   1      29.514  15.280   2.709  0.00  0.00     0.171 A 
HETATM   30  C   UNK N   1      28.220  14.749   2.843  0.00  0.00     0.075 A 
HETATM   31  F   UNK N   1      29.683  16.535   2.220  0.00  0.00    -0.201 F 
HETATM   32  C   UNK N   1      28.041  13.460   3.348  0.00  0.00     0.027 A 
HETATM   33 Cl   UNK N   1      26.815  15.693   2.385  0.00  0.00    -0.081 Cl
HETATM   34  C   UNK N   1      29.147  12.694   3.711  0.00  0.00     0.005 A 
HETATM   35  C   UNK N   1      30.433  13.219   3.573  0.00  0.00     0.040 A 
ENDBRANCH  27  28
ENDBRANCH   4  27
TORSDOF 8
ENDMDL
MODEL 9
REMARK VINA RESULT:      -7.1      5.906     10.427
REMARK  8 active torsions:
REMARK  status: ('A' for Active; 'I' for Inactive)
REMARK    1  A    between atoms: C_3  and  N_27 
REMARK    2  A    between atoms: C_6  and  C_8 
REMARK    3  A    between atoms: C_9  and  C_8 
REMARK    4  A    between atoms: C_9  and  C_24 
REMARK    5  A    between atoms: C_12  and  O_15 
REMARK    6  A    between atoms: O_15  and  C_16 
REMARK    7  A    between atoms: C_24  and  O_26 
REMARK    8  A    between atoms: N_27  and  C_28 
ROOT
HETATM    1  C   UNK N   1      27.794  18.375   5.883  0.00  0.00     0.051 C 
HETATM    2  C   UNK N   1      28.429  18.760   7.232  0.00  0.00     0.023 C 
HETATM    3  C   UNK N   1      29.350  17.646   7.749  0.00  0.00     0.034 C 
HETATM    4  C   UNK N   1      30.471  17.377   6.746  0.00  0.00     0.129 C 
HETATM    5  C   UNK N   1      29.948  17.092   5.334  0.00  0.00     0.034 C 
HETATM    6  C   UNK N   1      28.936  18.138   4.876  0.00  0.00     0.023 C 
ENDROOT
BRANCH   1   7
HETATM    7  C   UNK N   1      26.894  17.147   6.152  0.00  0.00     0.077 C 
BRANCH   7   8
HETATM    8  C   UNK N   1      25.854  16.806   5.133  0.00  0.00     0.012 A 
HETATM    9  N   UNK N   1      24.592  17.310   5.208  0.00  0.00    -0.346 N 
HETATM   10  C   UNK N   1      23.623  16.927   4.318  0.00  0.00     0.107 A 
ATOM     11  HN  UNK N   1      24.362  17.984   5.938  1.00  0.00     0.167 HD
HETATM   12  C   UNK N   1      23.927  15.999   3.319  0.00  0.00     0.048 A 
HETATM   13  C   UNK N   1      25.209  15.468   3.237  0.00  0.00     0.006 A 
HETATM   14  C   UNK N   1      26.172  15.862   4.157  0.00  0.00     0.025 A 
BRANCH  10  15
HETATM   15  N   UNK N   1      22.296  17.413   4.409  0.00  0.00    -0.323 N 
HETATM   16  H   UNK N   1      21.693  16.969   5.048  0.00  0.00     0.169 HD
BRANCH  15  17
HETATM   17  C   UNK N   1      21.769  18.487   3.652  0.00  0.00     0.149 A 
HETATM   18  S   UNK N   1      20.264  18.520   2.996  0.00  0.00    -0.064 SA
HETATM   19  C   UNK N   1      20.360  20.011   2.281  0.00  0.00     0.070 A 
HETATM   20  C   UNK N   1      21.653  20.483   2.589  0.00  0.00     0.097 A 
HETATM   21  N   UNK N   1      22.426  19.630   3.351  0.00  0.00    -0.346 N 
ATOM     22  HN  UNK N   1      23.379  19.837   3.652  1.00  0.00     0.167 HD
ENDBRANCH  15  17
ENDBRANCH  10  15
ENDBRANCH   7   8
ENDBRANCH   1   7
BRANCH   1  23
HETATM   23  C   UNK N   1      26.935  19.492   5.337  0.00  0.00     0.149 C 
HETATM   24  O   UNK N   1      27.116  19.930   4.210  0.00  0.00    -0.649 OA
BRANCH  23  25
HETATM   25  O   UNK N   1      25.948  20.010   6.094  0.00  0.00    -0.776 OA
HETATM   26  H   UNK N   1      25.232  20.529   5.783  0.00  0.00     0.167 HD
ENDBRANCH  23  25
ENDBRANCH   1  23
BRANCH   4  27
HETATM   27  O   UNK N   1      31.369  16.427   7.229  0.00  0.00    -0.343 OA
BRANCH  27  28
HETATM   28  C   UNK N   1      32.518  16.626   7.942  0.00  0.00     0.109 A 
HETATM   29  C   UNK N   1      32.849  15.727   8.969  0.00  0.00     0.171 A 
HETATM   30  C   UNK N   1      34.015  15.917   9.729  0.00  0.00     0.075 A 
HETATM   31  F   UNK N   1      32.037  14.671   9.228  0.00  0.00    -0.201 F 
HETATM   32  C   UNK N   1      34.852  17.004   9.468  0.00  0.00     0.027 A 
HETATM   33 Cl   UNK N   1      34.437  14.801  11.013  0.00  0.00    -0.081 Cl
HETATM   34  C   UNK N   1      34.534  17.899   8.448  0.00  0.00     0.005 A 
HETATM   35  C   UNK N   1      33.378  17.708   7.689  0.00  0.00     0.040 A 
ENDBRANCH  27  28
ENDBRANCH   4  27
TORSDOF 8
ENDMDL
