REMARK  10 active torsions:
REMARK  status: ('A' for Active; 'I' for Inactive)
REMARK    1  A    between atoms: C_4  and  N_22 
REMARK    2  A    between atoms: N_9  and  C_13 
REMARK    3  A    between atoms: C_13  and  C_14 
REMARK    4  A    between atoms: C_14  and  N_15 
REMARK    5  A    between atoms: N_15  and  C_16 
REMARK    6  A    between atoms: C_16  and  C_17 
REMARK    7  A    between atoms: C_17  and  C_18 
REMARK    8  A    between atoms: C_18  and  C_19 
REMARK    9  A    between atoms: C_19  and  C_20 
REMARK   10  A    between atoms: C_20  and  O_21 
ROOT
HETATM    1  C   UNK N   1       1.652  -2.599  -0.016  0.00  0.00     0.183 A 
HETATM    2  N   UNK N   1       0.383  -3.126   0.002  0.00  0.00    -0.337 N 
ATOM      3  HN  UNK N   1       0.259  -4.138   0.014  1.00  0.00     0.168 HD
HETATM    4  C   UNK N   1      -0.715  -2.313   0.003  0.00  0.00     0.131 A 
HETATM    5  C   UNK N   1      -0.510  -0.942  -0.010  0.00  0.00     0.122 A 
HETATM    6  C   UNK N   1       0.742  -0.448  -0.027  0.00  0.00     0.140 A 
HETATM    7  N   UNK N   1       1.839  -1.244  -0.033  0.00  0.00    -0.336 N 
ATOM      8  HN  UNK N   1       2.777  -0.843  -0.050  1.00  0.00     0.168 HD
HETATM    9  N   UNK N   1       0.690   0.892  -0.040  0.00  0.00    -0.326 N 
HETATM   10  C   UNK N   1      -0.632   1.194  -0.038  0.00  0.00     0.185 A 
HETATM   11  N   UNK N   1      -1.400   0.067  -0.016  0.00  0.00    -0.346 N 
ATOM     12  HN  UNK N   1      -2.418   0.004  -0.007  1.00  0.00     0.167 HD
ENDROOT
BRANCH   9  13
HETATM   13  C   UNK N   1       1.784   1.859  -0.088  0.00  0.00     0.150 C 
BRANCH  13  14
HETATM   14  C   UNK N   1       3.052   1.302   0.534  0.00  0.00     0.134 C 
BRANCH  14  15
HETATM   15  N   UNK N   1       4.210   1.861  -0.133  0.00  0.00    -0.420 N 
HETATM   16  H   UNK N   1       4.300   2.801  -0.520  0.00  0.00     0.153 HD
BRANCH  15  17
HETATM   17  C   UNK N   1       5.216   0.816  -0.138  0.00  0.00     0.113 C 
BRANCH  17  18
HETATM   18  C   UNK N   1       6.581   1.449  -0.015  0.00  0.00     0.019 C 
BRANCH  18  19
HETATM   19  C   UNK N   1       7.653   0.383  -0.021  0.00  0.00     0.004 C 
BRANCH  19  20
HETATM   20  C   UNK N   1       8.995   1.077   0.024  0.00  0.00     0.026 C 
BRANCH  20  21
HETATM   21  C   UNK N   1      10.114   0.063  -0.007  0.00  0.00     0.164 C 
BRANCH  21  22
HETATM   22  O   UNK N   1      11.335   0.735   0.002  0.00  0.00    -0.401 OA
HETATM   23  H   UNK N   1      12.165   0.233   0.009  0.00  0.00     0.209 HD
ENDBRANCH  21  22
ENDBRANCH  20  21
ENDBRANCH  19  20
ENDBRANCH  18  19
ENDBRANCH  17  18
ENDBRANCH  15  17
ENDBRANCH  14  15
ENDBRANCH  13  14
ENDBRANCH   9  13
BRANCH   4  24
HETATM   24  N   UNK N   1      -2.014  -2.860   0.016  0.00  0.00    -0.383 N 
HETATM   25  H   UNK N   1      -2.798  -2.265   0.024  0.00  0.00     0.157 HD
HETATM   26  H   UNK N   1      -2.136  -3.836   0.016  0.00  0.00     0.157 HD
ENDBRANCH   4  24
TORSDOF 10
