REMARK  9 active torsions:
REMARK  status: ('A' for Active; 'I' for Inactive)
REMARK    1  A    between atoms: C_2  and  C_3 
REMARK    2  A    between atoms: C_2  and  N_7 
REMARK    3  A    between atoms: N_7  and  C_8 
REMARK    4  A    between atoms: C_9  and  C_21 
REMARK    5  A    between atoms: C_24  and  O_28 
REMARK    6  A    between atoms: O_28  and  C_29 
REMARK    7  A    between atoms: C_29  and  C_30 
REMARK    8  A    between atoms: C_30  and  C_31 
REMARK    9  A    between atoms: C_31  and  N_32 
ROOT
HETATM    1  C   UNK N   1      -6.170   1.041   0.013  0.00  0.00     0.156 A 
HETATM    2  C   UNK N   1      -6.091  -0.303  -0.453  0.00  0.00     0.066 A 
HETATM    3  C   UNK N   1      -7.308  -0.942  -0.858  0.00  0.00     0.134 A 
HETATM    4  N   UNK N   1      -8.494  -0.274  -0.772  0.00  0.00    -0.178 N 
ATOM      5  HN  UNK N   1      -9.362  -0.726  -1.063  1.00  0.00     0.185 HD
HETATM    6  C   UNK N   1      -8.509   0.988  -0.299  0.00  0.00     0.707 A 
HETATM    7  N   UNK N   1      -7.401   1.621   0.070  0.00  0.00    -0.068 N 
HETATM    8  N   UNK N   1      -7.737   2.823   0.491  0.00  0.00    -0.273 N 
ATOM      9  HN  UNK N   1      -7.107   3.546   0.840  1.00  0.00     0.189 HD
HETATM   10  C   UNK N   1      -9.085   2.910   0.367  0.00  0.00     0.215 A 
HETATM   11  N   UNK N   1      -9.598   1.756  -0.134  0.00  0.00    -0.184 N 
ATOM     12  HN  UNK N   1     -10.572   1.528  -0.336  1.00  0.00     0.185 HD
HETATM   13 Cl   UNK N   1      -7.331  -2.551  -1.572  0.00  0.00    -0.063 Cl
ENDROOT
BRANCH   2  14
HETATM   14  C   UNK N   1      -4.775  -1.015  -0.504  0.00  0.00     0.058 A 
HETATM   15  C   UNK N   1      -3.641  -0.397  -1.077  0.00  0.00     0.133 A 
HETATM   16  C   UNK N   1      -2.408  -1.044  -1.077  0.00  0.00     0.080 A 
HETATM   17  F   UNK N   1      -3.728   0.820  -1.663  0.00  0.00    -0.205 F 
HETATM   18  C   UNK N   1      -2.264  -2.293  -0.482  0.00  0.00     0.074 A 
HETATM   19  C   UNK N   1      -3.379  -2.925   0.081  0.00  0.00     0.080 A 
HETATM   20  C   UNK N   1      -4.629  -2.306   0.057  0.00  0.00     0.133 A 
HETATM   21  F   UNK N   1      -5.671  -2.934   0.658  0.00  0.00    -0.205 F 
BRANCH  18  22
HETATM   22  O   UNK N   1      -1.033  -2.834  -0.400  0.00  0.00    -0.351 OA
BRANCH  22  23
HETATM   23  C   UNK N   1      -0.635  -3.526   0.720  0.00  0.00     0.177 C 
BRANCH  23  24
HETATM   24  C   UNK N   1       0.471  -2.756   1.451  0.00  0.00     0.046 C 
BRANCH  24  25
HETATM   25  C   UNK N   1       0.367  -1.234   1.303  0.00  0.00     0.115 C 
BRANCH  25  26
HETATM   26  N   UNK N   1       0.894  -0.813   0.011  0.00  0.00    -0.425 N 
HETATM   27  C   UNK N   1       2.334  -0.673   0.150  0.00  0.00     0.139 C 
HETATM   28  H   UNK N   1       0.351  -0.646  -0.836  0.00  0.00     0.152 HD
ENDBRANCH  25  26
ENDBRANCH  24  25
ENDBRANCH  23  24
ENDBRANCH  22  23
ENDBRANCH  18  22
ENDBRANCH   2  14
BRANCH   1  29
HETATM   29  N   UNK N   1      -4.997   1.727   0.451  0.00  0.00    -0.361 N 
HETATM   30  H   UNK N   1      -4.189   1.189   0.614  0.00  0.00     0.162 HD
BRANCH  29  31
HETATM   31  C   UNK N   1      -4.904   3.153   0.671  0.00  0.00     0.186 C 
HETATM   32  C   UNK N   1      -5.260   3.481   2.113  0.00  0.00     0.041 C 
BRANCH  31  33
HETATM   33  C   UNK N   1      -3.484   3.630   0.352  0.00  0.00     0.407 C 
HETATM   34  F   UNK N   1      -3.186   3.375  -0.973  0.00  0.00    -0.169 F 
HETATM   35  F   UNK N   1      -3.377   4.992   0.570  0.00  0.00    -0.169 F 
HETATM   36  F   UNK N   1      -2.567   2.970   1.154  0.00  0.00    -0.169 F 
ENDBRANCH  31  33
ENDBRANCH  29  31
ENDBRANCH   1  29
TORSDOF 9
