REMARK  11 active torsions:
REMARK  status: ('A' for Active; 'I' for Inactive)
REMARK    1  A    between atoms: C_2  and  C_3 
REMARK    2  A    between atoms: C_7  and  C_22 
REMARK    3  A    between atoms: C_7  and  C_55 
REMARK    4  A    between atoms: C_27  and  O_28 
REMARK    5  A    between atoms: C_37  and  C_52 
REMARK    6  A    between atoms: C_41  and  O_48 
REMARK    7  A    between atoms: C_42  and  C_43 
REMARK    8  A    between atoms: C_42  and  O_47 
REMARK    9  A    between atoms: C_43  and  O_45 
REMARK   10  A    between atoms: O_48  and  C_49 
REMARK   11  A    between atoms: C_55  and  O_57 
ROOT
HETATM    1  C   UNK N   1       4.204   0.654  -0.350  0.00  0.00     0.000 C 
HETATM    2  C   UNK N   1       2.867   1.051  -0.408  0.00  0.00     0.022 C 
HETATM    3  C   UNK N   1       2.562   2.377  -0.601  0.00  0.00    -0.018 C 
HETATM    4  C   UNK N   1       3.527   3.338  -0.602  0.00  0.00     0.040 C 
HETATM    5  C   UNK N   1       4.870   3.014  -0.645  0.00  0.00     0.067 C 
HETATM    6  C   UNK N   1       5.235   1.652  -0.568  0.00  0.00     0.078 C 
HETATM    7  N   UNK N   1       2.957   4.586  -0.318  0.00  0.00    -0.375 N 
HETATM    8  C   UNK N   1       1.607   4.292   0.125  0.00  0.00     0.146 C 
HETATM    9  C   UNK N   1       1.227   3.014  -0.618  0.00  0.00     0.047 C 
HETATM   10  C   UNK N   1       0.835   3.070  -2.082  0.00  0.00     0.049 C 
HETATM   11  C   UNK N   1       0.109   1.723  -2.277  0.00  0.00     0.274 C 
HETATM   12  N   UNK N   1      -0.216   1.196  -0.939  0.00  0.00     0.098 N 
HETATM   13  C   UNK N   1       0.074   2.302  -0.008  0.00  0.00     0.253 C 
HETATM   14  C   UNK N   1      -1.154   3.256   0.173  0.00  0.00     0.039 C 
HETATM   15  C   UNK N   1      -2.151   2.352   0.852  0.00  0.00    -0.015 C 
HETATM   16  C   UNK N   1      -2.375   1.134   0.330  0.00  0.00    -0.000 C 
HETATM   17  C   UNK N   1      -1.608   0.696  -0.905  0.00  0.00     0.300 C 
HETATM   18  C   UNK N   1      -0.713   4.480   1.043  0.00  0.00     0.193 C 
HETATM   19  C   UNK N   1       0.544   5.305   0.555  0.00  0.00     0.194 C 
HETATM   20  C   UNK N   1       3.738   5.690   0.180  0.00  0.00     0.150 C 
ENDROOT
BRANCH   1  21
HETATM   21  C   UNK N   1       4.473  -0.736   0.242  0.00  0.00     0.121 C 
HETATM   22  C   UNK N   1       5.922  -1.140  -0.025  0.00  0.00     0.041 C 
HETATM   23  C   UNK N   1       6.908  -0.992   1.135  0.00  0.00     0.038 C 
HETATM   24  C   UNK N   1       8.244  -0.733   0.563  0.00  0.00    -0.016 C 
HETATM   25  C   UNK N   1       6.980  -2.290   1.929  0.00  0.00     0.281 C 
HETATM   26  C   UNK N   1       8.972  -1.737   0.075  0.00  0.00    -0.056 C 
HETATM   27  C   UNK N   1       8.489  -3.185   0.171  0.00  0.00     0.306 C 
HETATM   28  N   UNK N   1       7.321  -3.431   1.058  0.00  0.00     0.093 N 
HETATM   29  C   UNK N   1       6.172  -3.909   0.264  0.00  0.00     0.277 C 
HETATM   30  C   UNK N   1       4.835  -3.853   1.032  0.00  0.00     0.072 C 
HETATM   31  C   UNK N   1       3.743  -3.237   0.196  0.00  0.00    -0.020 A 
HETATM   32  C   UNK N   1       3.603  -1.901  -0.244  0.00  0.00     0.040 A 
HETATM   33  C   UNK N   1       2.599  -3.873  -0.204  0.00  0.00    -0.001 A 
HETATM   34  N   UNK N   1       2.448  -1.757  -0.940  0.00  0.00    -0.357 N 
HETATM   35  C   UNK N   1       1.839  -2.966  -0.892  0.00  0.00     0.043 A 
HETATM   36  H   UNK N   1       2.121  -0.943  -1.387  0.00  0.00     0.166 HD
HETATM   37  C   UNK N   1       0.573  -3.282  -1.371  0.00  0.00     0.030 A 
HETATM   38  C   UNK N   1       0.085  -4.582  -1.126  0.00  0.00     0.002 A 
HETATM   39  C   UNK N   1       0.870  -5.521  -0.420  0.00  0.00     0.001 A 
HETATM   40  C   UNK N   1       2.148  -5.170   0.049  0.00  0.00     0.014 A 
BRANCH  26  41
HETATM   41  C   UNK N   1      10.281  -1.423  -0.578  0.00  0.00     0.031 C 
HETATM   42  C   UNK N   1      11.226  -0.736   0.396  0.00  0.00     0.010 C 
ENDBRANCH  26  41
BRANCH  21  43
HETATM   43  C   UNK N   1       4.147  -0.527   1.753  0.00  0.00     0.278 C 
HETATM   44  O   UNK N   1       4.852   0.228   2.406  0.00  0.00    -0.264 OA
BRANCH  43  45
HETATM   45  O   UNK N   1       3.052  -1.047   2.379  0.00  0.00    -0.325 OA
HETATM   46  C   UNK N   1       1.794  -1.118   1.822  0.00  0.00     0.213 C 
ENDBRANCH  43  45
ENDBRANCH  21  43
ENDBRANCH   1  21
BRANCH   6  47
HETATM   47  O   UNK N   1       6.547   1.321  -0.602  0.00  0.00    -0.355 OA
HETATM   48  C   UNK N   1       7.555   2.212  -0.905  0.00  0.00     0.210 C 
ENDBRANCH   6  47
BRANCH  19  49
HETATM   49  C   UNK N   1       0.330   6.317  -0.541  0.00  0.00     0.298 C 
HETATM   50  O   UNK N   1      -0.771   6.480  -1.043  0.00  0.00    -0.262 OA
BRANCH  49  51
HETATM   51  O   UNK N   1       1.380   7.092  -0.914  0.00  0.00    -0.324 OA
HETATM   52  C   UNK N   1       1.276   8.108  -1.831  0.00  0.00     0.213 C 
ENDBRANCH  49  51
ENDBRANCH  19  49
BRANCH  19  53
HETATM   53  O   UNK N   1       1.029   5.999   1.665  0.00  0.00    -0.375 OA
HETATM   54  H   UNK N   1       1.615   5.948   2.437  0.00  0.00     0.211 HD
ENDBRANCH  19  53
BRANCH  14  55
HETATM   55  C   UNK N   1      -1.769   3.743  -1.167  0.00  0.00     0.014 C 
HETATM   56  C   UNK N   1      -3.114   4.443  -1.033  0.00  0.00     0.006 C 
ENDBRANCH  14  55
BRANCH  18  57
HETATM   57  O   UNK N   1      -1.776   5.306   1.347  0.00  0.00    -0.311 OA
BRANCH  57  58
HETATM   58  C   UNK N   1      -2.588   5.108   2.414  0.00  0.00     0.255 C 
HETATM   59  O   UNK N   1      -2.358   4.223   3.224  0.00  0.00    -0.266 OA
HETATM   60  C   UNK N   1      -3.800   5.956   2.575  0.00  0.00     0.126 C 
ENDBRANCH  57  58
ENDBRANCH  18  57
TORSDOF 11
