MODEL 1
REMARK VINA RESULT:      -7.0      0.000      0.000
REMARK  1 active torsions:
REMARK  status: ('A' for Active; 'I' for Inactive)
REMARK    1  A    between atoms: C_9  and  C_14 
ROOT
HETATM    1  C   UNK N   1      20.095  14.896   9.242  0.00  0.00     0.210 A 
HETATM    2  C   UNK N   1      19.869  15.557   8.803  0.00  0.00    -0.098 A 
HETATM    3  C   UNK N   1      19.643  16.218   8.365  0.00  0.00     0.014 A 
HETATM    4  N   UNK N   1      20.889  14.674   9.273  0.00  0.00    -0.403 N 
HETATM    5  C   UNK N   1      21.456  15.111   8.866  0.00  0.00     0.144 A 
HETATM    6  C   UNK N   1      21.115  14.012   9.713  0.00  0.00     0.079 A 
HETATM    7  C   UNK N   1      20.547  13.573  10.120  0.00  0.00     0.032 A 
HETATM    8  C   UNK N   1      21.909  13.790   9.744  0.00  0.00     0.063 A 
HETATM    9  C   UNK N   1      22.134  13.128  10.183  0.00  0.00    -0.056 A 
HETATM   10  C   UNK N   1      22.928  12.906  10.214  0.00  0.00     0.007 A 
HETATM   11  C   UNK N   1      23.154  12.244  10.653  0.00  0.00     0.001 A 
HETATM   12  C   UNK N   1      22.586  11.806  11.060  0.00  0.00     0.000 A 
HETATM   13  C   UNK N   1      21.792  12.029  11.028  0.00  0.00     0.001 A 
HETATM   14  C   UNK N   1      21.567  12.690  10.590  0.00  0.00     0.007 A 
ENDROOT
TORSDOF 1
ENDMDL
MODEL 2
REMARK VINA RESULT:      -6.7      0.758      3.627
REMARK  1 active torsions:
REMARK  status: ('A' for Active; 'I' for Inactive)
REMARK    1  A    between atoms: C_9  and  C_14 
ROOT
HETATM    1  C   UNK N   1      21.931  12.481  10.668  0.00  0.00     0.210 A 
HETATM    2  C   UNK N   1      22.555  11.991  10.897  0.00  0.00    -0.098 A 
HETATM    3  C   UNK N   1      23.177  11.501  11.126  0.00  0.00     0.014 A 
HETATM    4  N   UNK N   1      22.075  13.131  10.182  0.00  0.00    -0.403 N 
HETATM    5  C   UNK N   1      22.842  13.293   9.926  0.00  0.00     0.144 A 
HETATM    6  C   UNK N   1      21.451  13.621   9.953  0.00  0.00     0.079 A 
HETATM    7  C   UNK N   1      20.684  13.460  10.210  0.00  0.00     0.032 A 
HETATM    8  C   UNK N   1      21.596  14.272   9.468  0.00  0.00     0.063 A 
HETATM    9  C   UNK N   1      20.972  14.762   9.238  0.00  0.00    -0.056 A 
HETATM   10  C   UNK N   1      21.117  15.413   8.753  0.00  0.00     0.007 A 
HETATM   11  C   UNK N   1      20.493  15.903   8.524  0.00  0.00     0.001 A 
HETATM   12  C   UNK N   1      19.726  15.742   8.780  0.00  0.00     0.000 A 
HETATM   13  C   UNK N   1      19.582  15.090   9.266  0.00  0.00     0.001 A 
HETATM   14  C   UNK N   1      20.205  14.601   9.495  0.00  0.00     0.007 A 
ENDROOT
TORSDOF 1
ENDMDL
MODEL 3
REMARK VINA RESULT:      -6.7      1.960      2.286
REMARK  1 active torsions:
REMARK  status: ('A' for Active; 'I' for Inactive)
REMARK    1  A    between atoms: C_9  and  C_14 
ROOT
HETATM    1  C   UNK N   1      21.416  12.673   8.787  0.00  0.00     0.210 A 
HETATM    2  C   UNK N   1      21.332  12.807   7.976  0.00  0.00    -0.098 A 
HETATM    3  C   UNK N   1      21.249  12.942   7.167  0.00  0.00     0.014 A 
HETATM    4  N   UNK N   1      22.162  12.525   9.105  0.00  0.00    -0.403 N 
HETATM    5  C   UNK N   1      22.824  12.511   8.615  0.00  0.00     0.144 A 
HETATM    6  C   UNK N   1      22.246  12.391   9.915  0.00  0.00     0.079 A 
HETATM    7  C   UNK N   1      21.583  12.405  10.406  0.00  0.00     0.032 A 
HETATM    8  C   UNK N   1      22.992  12.243  10.233  0.00  0.00     0.063 A 
HETATM    9  C   UNK N   1      23.075  12.108  11.044  0.00  0.00    -0.056 A 
HETATM   10  C   UNK N   1      23.822  11.960  11.362  0.00  0.00     0.007 A 
HETATM   11  C   UNK N   1      23.905  11.826  12.172  0.00  0.00     0.001 A 
HETATM   12  C   UNK N   1      23.242  11.840  12.663  0.00  0.00     0.000 A 
HETATM   13  C   UNK N   1      22.496  11.988  12.344  0.00  0.00     0.001 A 
HETATM   14  C   UNK N   1      22.413  12.122  11.535  0.00  0.00     0.007 A 
ENDROOT
TORSDOF 1
ENDMDL
MODEL 4
REMARK VINA RESULT:      -6.7     14.679     15.869
REMARK  1 active torsions:
REMARK  status: ('A' for Active; 'I' for Inactive)
REMARK    1  A    between atoms: C_9  and  C_14 
ROOT
HETATM    1  C   UNK N   1      35.240  13.157  15.459  0.00  0.00     0.210 A 
HETATM    2  C   UNK N   1      35.277  13.029  14.644  0.00  0.00    -0.098 A 
HETATM    3  C   UNK N   1      35.315  12.901  13.830  0.00  0.00     0.014 A 
HETATM    4  N   UNK N   1      35.314  12.522  15.979  0.00  0.00    -0.403 N 
HETATM    5  C   UNK N   1      35.427  11.760  15.687  0.00  0.00     0.144 A 
HETATM    6  C   UNK N   1      35.277  12.650  16.794  0.00  0.00     0.079 A 
HETATM    7  C   UNK N   1      35.164  13.413  17.087  0.00  0.00     0.032 A 
HETATM    8  C   UNK N   1      35.352  12.014  17.315  0.00  0.00     0.063 A 
HETATM    9  C   UNK N   1      35.314  12.143  18.130  0.00  0.00    -0.056 A 
HETATM   10  C   UNK N   1      35.389  11.507  18.650  0.00  0.00     0.007 A 
HETATM   11  C   UNK N   1      35.351  11.635  19.465  0.00  0.00     0.001 A 
HETATM   12  C   UNK N   1      35.239  12.398  19.758  0.00  0.00     0.000 A 
HETATM   13  C   UNK N   1      35.164  13.033  19.236  0.00  0.00     0.001 A 
HETATM   14  C   UNK N   1      35.202  12.906  18.423  0.00  0.00     0.007 A 
ENDROOT
TORSDOF 1
ENDMDL
MODEL 5
REMARK VINA RESULT:      -6.7      2.509      3.377
REMARK  1 active torsions:
REMARK  status: ('A' for Active; 'I' for Inactive)
REMARK    1  A    between atoms: C_9  and  C_14 
ROOT
HETATM    1  C   UNK N   1      24.918  13.222   8.696  0.00  0.00     0.210 A 
HETATM    2  C   UNK N   1      25.125  13.537   7.961  0.00  0.00    -0.098 A 
HETATM    3  C   UNK N   1      25.331  13.851   7.228  0.00  0.00     0.014 A 
HETATM    4  N   UNK N   1      24.124  13.166   8.912  0.00  0.00    -0.403 N 
HETATM    5  C   UNK N   1      23.537  13.425   8.395  0.00  0.00     0.144 A 
HETATM    6  C   UNK N   1      23.918  12.851   9.647  0.00  0.00     0.079 A 
HETATM    7  C   UNK N   1      24.506  12.592  10.164  0.00  0.00     0.032 A 
HETATM    8  C   UNK N   1      23.124  12.795   9.862  0.00  0.00     0.063 A 
HETATM    9  C   UNK N   1      22.917  12.480  10.597  0.00  0.00    -0.056 A 
HETATM   10  C   UNK N   1      22.123  12.425  10.813  0.00  0.00     0.007 A 
HETATM   11  C   UNK N   1      21.917  12.109  11.547  0.00  0.00     0.001 A 
HETATM   12  C   UNK N   1      22.504  11.851  12.065  0.00  0.00     0.000 A 
HETATM   13  C   UNK N   1      23.299  11.907  11.848  0.00  0.00     0.001 A 
HETATM   14  C   UNK N   1      23.505  12.222  11.115  0.00  0.00     0.007 A 
ENDROOT
TORSDOF 1
ENDMDL
MODEL 6
REMARK VINA RESULT:      -6.4     13.789     14.961
REMARK  1 active torsions:
REMARK  status: ('A' for Active; 'I' for Inactive)
REMARK    1  A    between atoms: C_9  and  C_14 
ROOT
HETATM    1  C   UNK N   1      34.904  13.371  17.036  0.00  0.00     0.210 A 
HETATM    2  C   UNK N   1      35.142  13.694  17.757  0.00  0.00    -0.098 A 
HETATM    3  C   UNK N   1      35.379  14.017  18.477  0.00  0.00     0.014 A 
HETATM    4  N   UNK N   1      34.965  12.558  16.909  0.00  0.00    -0.403 N 
HETATM    5  C   UNK N   1      35.262  12.069  17.502  0.00  0.00     0.144 A 
HETATM    6  C   UNK N   1      34.727  12.234  16.187  0.00  0.00     0.079 A 
HETATM    7  C   UNK N   1      34.430  12.724  15.594  0.00  0.00     0.032 A 
HETATM    8  C   UNK N   1      34.788  11.422  16.060  0.00  0.00     0.063 A 
HETATM    9  C   UNK N   1      34.550  11.098  15.339  0.00  0.00    -0.056 A 
HETATM   10  C   UNK N   1      34.611  10.285  15.212  0.00  0.00     0.007 A 
HETATM   11  C   UNK N   1      34.373   9.962  14.491  0.00  0.00     0.001 A 
HETATM   12  C   UNK N   1      34.076  10.452  13.897  0.00  0.00     0.000 A 
HETATM   13  C   UNK N   1      34.016  11.265  14.025  0.00  0.00     0.001 A 
HETATM   14  C   UNK N   1      34.253  11.588  14.745  0.00  0.00     0.007 A 
ENDROOT
TORSDOF 1
ENDMDL
MODEL 7
REMARK VINA RESULT:      -6.4      2.867      4.051
REMARK  1 active torsions:
REMARK  status: ('A' for Active; 'I' for Inactive)
REMARK    1  A    between atoms: C_9  and  C_14 
ROOT
HETATM    1  C   UNK N   1      22.874  11.965  11.946  0.00  0.00     0.210 A 
HETATM    2  C   UNK N   1      23.110  11.981  12.738  0.00  0.00    -0.098 A 
HETATM    3  C   UNK N   1      23.344  11.998  13.528  0.00  0.00     0.014 A 
HETATM    4  N   UNK N   1      23.442  11.966  11.348  0.00  0.00    -0.403 N 
HETATM    5  C   UNK N   1      24.243  11.983  11.540  0.00  0.00     0.144 A 
HETATM    6  C   UNK N   1      23.207  11.950  10.557  0.00  0.00     0.079 A 
HETATM    7  C   UNK N   1      22.405  11.932  10.365  0.00  0.00     0.032 A 
HETATM    8  C   UNK N   1      23.775  11.951   9.958  0.00  0.00     0.063 A 
HETATM    9  C   UNK N   1      23.539  11.934   9.167  0.00  0.00    -0.056 A 
HETATM   10  C   UNK N   1      24.107  11.935   8.569  0.00  0.00     0.007 A 
HETATM   11  C   UNK N   1      23.872  11.919   7.777  0.00  0.00     0.001 A 
HETATM   12  C   UNK N   1      23.070  11.902   7.586  0.00  0.00     0.000 A 
HETATM   13  C   UNK N   1      22.503  11.901   8.185  0.00  0.00     0.001 A 
HETATM   14  C   UNK N   1      22.737  11.917   8.975  0.00  0.00     0.007 A 
ENDROOT
TORSDOF 1
ENDMDL
MODEL 8
REMARK VINA RESULT:      -6.4     20.621     21.169
REMARK  1 active torsions:
REMARK  status: ('A' for Active; 'I' for Inactive)
REMARK    1  A    between atoms: C_9  and  C_14 
ROOT
HETATM    1  C   UNK N   1      26.873  29.132  -3.097  0.00  0.00     0.210 A 
HETATM    2  C   UNK N   1      27.446  29.554  -2.678  0.00  0.00    -0.098 A 
HETATM    3  C   UNK N   1      28.018  29.975  -2.259  0.00  0.00     0.014 A 
HETATM    4  N   UNK N   1      27.058  28.804  -3.831  0.00  0.00    -0.403 N 
HETATM    5  C   UNK N   1      27.814  28.896  -4.145  0.00  0.00     0.144 A 
HETATM    6  C   UNK N   1      26.485  28.382  -4.250  0.00  0.00     0.079 A 
HETATM    7  C   UNK N   1      25.727  28.290  -3.936  0.00  0.00     0.032 A 
HETATM    8  C   UNK N   1      26.670  28.054  -4.984  0.00  0.00     0.063 A 
HETATM    9  C   UNK N   1      26.096  27.632  -5.403  0.00  0.00    -0.056 A 
HETATM   10  C   UNK N   1      26.282  27.304  -6.137  0.00  0.00     0.007 A 
HETATM   11  C   UNK N   1      25.708  26.882  -6.556  0.00  0.00     0.001 A 
HETATM   12  C   UNK N   1      24.951  26.790  -6.241  0.00  0.00     0.000 A 
HETATM   13  C   UNK N   1      24.768  27.119  -5.507  0.00  0.00     0.001 A 
HETATM   14  C   UNK N   1      25.339  27.540  -5.088  0.00  0.00     0.007 A 
ENDROOT
TORSDOF 1
ENDMDL
MODEL 9
REMARK VINA RESULT:      -6.3     18.863     19.921
REMARK  1 active torsions:
REMARK  status: ('A' for Active; 'I' for Inactive)
REMARK    1  A    between atoms: C_9  and  C_14 
ROOT
HETATM    1  C   UNK N   1      25.742  24.463  -6.165  0.00  0.00     0.210 A 
HETATM    2  C   UNK N   1      25.873  23.667  -6.339  0.00  0.00    -0.098 A 
HETATM    3  C   UNK N   1      26.005  22.872  -6.512  0.00  0.00     0.014 A 
HETATM    4  N   UNK N   1      25.950  24.763  -5.426  0.00  0.00    -0.403 N 
HETATM    5  C   UNK N   1      26.290  24.269  -4.861  0.00  0.00     0.144 A 
HETATM    6  C   UNK N   1      25.819  25.560  -5.252  0.00  0.00     0.079 A 
HETATM    7  C   UNK N   1      25.478  26.055  -5.818  0.00  0.00     0.032 A 
HETATM    8  C   UNK N   1      26.028  25.860  -4.513  0.00  0.00     0.063 A 
HETATM    9  C   UNK N   1      25.896  26.657  -4.339  0.00  0.00    -0.056 A 
HETATM   10  C   UNK N   1      26.105  26.957  -3.600  0.00  0.00     0.007 A 
HETATM   11  C   UNK N   1      25.973  27.753  -3.426  0.00  0.00     0.001 A 
HETATM   12  C   UNK N   1      25.633  28.248  -3.992  0.00  0.00     0.000 A 
HETATM   13  C   UNK N   1      25.424  27.946  -4.731  0.00  0.00     0.001 A 
HETATM   14  C   UNK N   1      25.556  27.151  -4.905  0.00  0.00     0.007 A 
ENDROOT
TORSDOF 1
ENDMDL
