MODEL 1
REMARK VINA RESULT:      -7.4      0.000      0.000
REMARK  7 active torsions:
REMARK  status: ('A' for Active; 'I' for Inactive)
REMARK    1  A    between atoms: C_2  and  C_1 
REMARK    2  A    between atoms: C_13  and  C_1 
REMARK    3  A    between atoms: C_20  and  C_2 
REMARK    4  A    between atoms: N_24  and  C_13 
REMARK    5  A    between atoms: C_20  and  C_16 
REMARK    6  A    between atoms: C_21  and  C_17 
REMARK    7  A    between atoms: O_26  and  C_21 
ROOT
HETATM    1  C   UNK N   1      35.509  14.829  12.277  0.00  0.00     0.073 C 
HETATM    2  C   UNK N   1      36.494  13.850  10.151  0.00  0.00     0.073 C 
HETATM    3  C   UNK N   1      35.325  13.331  12.518  0.00  0.00     0.276 C 
HETATM    4  C   UNK N   1      37.358  13.069  11.149  0.00  0.00     0.276 C 
HETATM    5  C   UNK N   1      35.939  15.114  10.825  0.00  0.00     0.088 C 
HETATM    6  N   UNK N   1      36.591  12.595  12.318  0.00  0.00     0.088 N 
ENDROOT
BRANCH   6   7
HETATM    7  C   UNK N   1      36.326  11.174  12.087  0.00  0.00     0.272 C 
BRANCH   7   8
HETATM    8  C   UNK N   1      36.647  10.294  13.291  0.00  0.00     0.038 C 
BRANCH   8   9
HETATM    9  C   UNK N   1      35.350   9.674  13.786  0.00  0.00     0.085 C 
BRANCH   9  10
HETATM   10  C   UNK N   1      34.395  10.504  14.610  0.00  0.00     0.159 C 
HETATM   11  O   UNK N   1      33.269  10.646  14.158  0.00  0.00    -0.292 OA
BRANCH  10  12
HETATM   12  C   UNK N   1      34.710  11.136  15.925  0.00  0.00     0.010 A 
HETATM   13  C   UNK N   1      34.689  12.538  16.023  0.00  0.00     0.018 A 
HETATM   14  C   UNK N   1      34.966  13.174  17.234  0.00  0.00     0.043 A 
HETATM   15  C   UNK N   1      35.271  12.417  18.365  0.00  0.00     0.116 A 
HETATM   16  C   UNK N   1      35.297  11.022  18.284  0.00  0.00     0.043 A 
HETATM   17  F   UNK N   1      35.539  13.034  19.540  0.00  0.00    -0.206 F 
HETATM   18  C   UNK N   1      35.018  10.385  17.070  0.00  0.00     0.018 A 
ENDBRANCH  10  12
ENDBRANCH   9  10
ENDBRANCH   8   9
ENDBRANCH   7   8
ENDBRANCH   6   7
BRANCH   5  19
HETATM   19  C   UNK N   1      34.760  15.644  10.036  0.00  0.00    -0.024 A 
HETATM   20  C   UNK N   1      33.623  14.844   9.824  0.00  0.00     0.011 A 
HETATM   21  C   UNK N   1      32.545  15.327   9.077  0.00  0.00     0.020 A 
HETATM   22  C   UNK N   1      32.593  16.609   8.528  0.00  0.00     0.011 A 
HETATM   23  C   UNK N   1      33.716  17.416   8.733  0.00  0.00     0.020 A 
HETATM   24 Br   UNK N   1      31.130  17.252   7.489  0.00  0.00    -0.051 Br
HETATM   25  C   UNK N   1      34.793  16.938   9.487  0.00  0.00     0.011 A 
ENDBRANCH   5  19
BRANCH   5  26
HETATM   26  O   UNK N   1      36.960  16.069  10.868  0.00  0.00    -0.385 OA
HETATM   27  H   UNK N   1      37.894  15.854  11.017  0.00  0.00     0.211 HD
ENDBRANCH   5  26
TORSDOF 7
ENDMDL
MODEL 2
REMARK VINA RESULT:      -7.3      4.643      9.322
REMARK  7 active torsions:
REMARK  status: ('A' for Active; 'I' for Inactive)
REMARK    1  A    between atoms: C_2  and  C_1 
REMARK    2  A    between atoms: C_13  and  C_1 
REMARK    3  A    between atoms: C_20  and  C_2 
REMARK    4  A    between atoms: N_24  and  C_13 
REMARK    5  A    between atoms: C_20  and  C_16 
REMARK    6  A    between atoms: C_21  and  C_17 
REMARK    7  A    between atoms: O_26  and  C_21 
ROOT
HETATM    1  C   UNK N   1      35.757  11.868  12.681  0.00  0.00     0.073 C 
HETATM    2  C   UNK N   1      36.548  14.135  13.508  0.00  0.00     0.073 C 
HETATM    3  C   UNK N   1      34.701  12.796  12.081  0.00  0.00     0.276 C 
HETATM    4  C   UNK N   1      36.510  14.470  12.012  0.00  0.00     0.276 C 
HETATM    5  C   UNK N   1      36.647  12.613  13.695  0.00  0.00     0.088 C 
HETATM    6  N   UNK N   1      35.326  13.906  11.332  0.00  0.00     0.088 N 
ENDROOT
BRANCH   6   7
HETATM    7  C   UNK N   1      34.380  15.011  11.169  0.00  0.00     0.272 C 
BRANCH   7   8
HETATM    8  C   UNK N   1      34.272  15.510   9.732  0.00  0.00     0.038 C 
BRANCH   8   9
HETATM    9  C   UNK N   1      34.935  16.876   9.651  0.00  0.00     0.085 C 
BRANCH   9  10
HETATM   10  C   UNK N   1      34.529  17.836   8.558  0.00  0.00     0.159 C 
HETATM   11  O   UNK N   1      35.133  18.897   8.515  0.00  0.00    -0.292 OA
BRANCH  10  12
HETATM   12  C   UNK N   1      33.479  17.583   7.528  0.00  0.00     0.010 A 
HETATM   13  C   UNK N   1      32.133  17.543   7.931  0.00  0.00     0.018 A 
HETATM   14  C   UNK N   1      31.115  17.320   7.003  0.00  0.00     0.043 A 
HETATM   15  C   UNK N   1      31.429  17.129   5.657  0.00  0.00     0.116 A 
HETATM   16  C   UNK N   1      32.762  17.164   5.240  0.00  0.00     0.043 A 
HETATM   17  F   UNK N   1      30.440  16.914   4.757  0.00  0.00    -0.206 F 
HETATM   18  C   UNK N   1      33.782  17.390   6.171  0.00  0.00     0.018 A 
ENDBRANCH  10  12
ENDBRANCH   9  10
ENDBRANCH   8   9
ENDBRANCH   7   8
ENDBRANCH   6   7
BRANCH   5  19
HETATM   19  C   UNK N   1      36.242  12.240  15.106  0.00  0.00    -0.024 A 
HETATM   20  C   UNK N   1      35.576  13.166  15.928  0.00  0.00     0.011 A 
HETATM   21  C   UNK N   1      35.222  12.827  17.237  0.00  0.00     0.020 A 
HETATM   22  C   UNK N   1      35.536  11.563  17.740  0.00  0.00     0.011 A 
HETATM   23  C   UNK N   1      36.195  10.632  16.933  0.00  0.00     0.020 A 
HETATM   24 Br   UNK N   1      35.073  11.115  19.534  0.00  0.00    -0.051 Br
HETATM   25  C   UNK N   1      36.543  10.966  15.620  0.00  0.00     0.011 A 
ENDBRANCH   5  19
BRANCH   5  26
HETATM   26  O   UNK N   1      37.971  12.231  13.454  0.00  0.00    -0.385 OA
HETATM   27  H   UNK N   1      38.718  12.486  14.018  0.00  0.00     0.211 HD
ENDBRANCH   5  26
TORSDOF 7
ENDMDL
MODEL 3
REMARK VINA RESULT:      -7.2      4.473      8.849
REMARK  7 active torsions:
REMARK  status: ('A' for Active; 'I' for Inactive)
REMARK    1  A    between atoms: C_2  and  C_1 
REMARK    2  A    between atoms: C_13  and  C_1 
REMARK    3  A    between atoms: C_20  and  C_2 
REMARK    4  A    between atoms: N_24  and  C_13 
REMARK    5  A    between atoms: C_20  and  C_16 
REMARK    6  A    between atoms: C_21  and  C_17 
REMARK    7  A    between atoms: O_26  and  C_21 
ROOT
HETATM    1  C   UNK N   1      35.023  11.932  11.060  0.00  0.00     0.073 C 
HETATM    2  C   UNK N   1      37.043  13.466  11.178  0.00  0.00     0.073 C 
HETATM    3  C   UNK N   1      34.558  13.113  10.209  0.00  0.00     0.276 C 
HETATM    4  C   UNK N   1      36.944  13.384   9.650  0.00  0.00     0.276 C 
HETATM    5  C   UNK N   1      36.330  12.260  11.809  0.00  0.00     0.088 C 
HETATM    6  N   UNK N   1      35.550  13.446   9.166  0.00  0.00     0.088 N 
ENDROOT
BRANCH   6   7
HETATM    7  C   UNK N   1      35.345  14.812   8.680  0.00  0.00     0.272 C 
BRANCH   7   8
HETATM    8  C   UNK N   1      34.400  15.630   9.554  0.00  0.00     0.038 C 
BRANCH   8   9
HETATM    9  C   UNK N   1      34.872  17.075   9.544  0.00  0.00     0.085 C 
BRANCH   9  10
HETATM   10  C   UNK N   1      34.414  18.000   8.442  0.00  0.00     0.159 C 
HETATM   11  O   UNK N   1      35.008  19.063   8.343  0.00  0.00    -0.292 OA
BRANCH  10  12
HETATM   12  C   UNK N   1      33.322  17.711   7.466  0.00  0.00     0.010 A 
HETATM   13  C   UNK N   1      33.652  17.562   6.108  0.00  0.00     0.018 A 
HETATM   14  C   UNK N   1      32.667  17.280   5.160  0.00  0.00     0.043 A 
HETATM   15  C   UNK N   1      31.337  17.144   5.557  0.00  0.00     0.116 A 
HETATM   16  C   UNK N   1      30.992  17.290   6.903  0.00  0.00     0.043 A 
HETATM   17  F   UNK N   1      30.382  16.869   4.637  0.00  0.00    -0.206 F 
HETATM   18  C   UNK N   1      31.980  17.572   7.853  0.00  0.00     0.018 A 
ENDBRANCH  10  12
ENDBRANCH   9  10
ENDBRANCH   8   9
ENDBRANCH   7   8
ENDBRANCH   6   7
BRANCH   5  19
HETATM   19  C   UNK N   1      36.029  12.543  13.266  0.00  0.00    -0.024 A 
HETATM   20  C   UNK N   1      34.835  12.089  13.852  0.00  0.00     0.011 A 
HETATM   21  C   UNK N   1      34.549  12.370  15.191  0.00  0.00     0.020 A 
HETATM   22  C   UNK N   1      35.449  13.113  15.956  0.00  0.00     0.011 A 
HETATM   23  C   UNK N   1      36.642  13.568  15.388  0.00  0.00     0.020 A 
HETATM   24 Br   UNK N   1      35.043  13.514  17.775  0.00  0.00    -0.051 Br
HETATM   25  C   UNK N   1      36.934  13.281  14.050  0.00  0.00     0.011 A 
ENDBRANCH   5  19
BRANCH   5  26
HETATM   26  O   UNK N   1      37.171  11.149  11.695  0.00  0.00    -0.385 OA
HETATM   27  H   UNK N   1      38.101  11.200  11.425  0.00  0.00     0.211 HD
ENDBRANCH   5  26
TORSDOF 7
ENDMDL
MODEL 4
REMARK VINA RESULT:      -7.2     19.715     22.984
REMARK  7 active torsions:
REMARK  status: ('A' for Active; 'I' for Inactive)
REMARK    1  A    between atoms: C_2  and  C_1 
REMARK    2  A    between atoms: C_13  and  C_1 
REMARK    3  A    between atoms: C_20  and  C_2 
REMARK    4  A    between atoms: N_24  and  C_13 
REMARK    5  A    between atoms: C_20  and  C_16 
REMARK    6  A    between atoms: C_21  and  C_17 
REMARK    7  A    between atoms: O_26  and  C_21 
ROOT
HETATM    1  C   UNK N   1      26.570  23.809  -9.257  0.00  0.00     0.073 C 
HETATM    2  C   UNK N   1      26.272  22.072  -7.429  0.00  0.00     0.073 C 
HETATM    3  C   UNK N   1      27.917  23.087  -9.300  0.00  0.00     0.276 C 
HETATM    4  C   UNK N   1      26.647  21.107  -8.561  0.00  0.00     0.276 C 
HETATM    5  C   UNK N   1      25.748  23.389  -8.023  0.00  0.00     0.088 C 
HETATM    6  N   UNK N   1      27.739  21.624  -9.410  0.00  0.00     0.088 N 
ENDROOT
BRANCH   6   7
HETATM    7  C   UNK N   1      28.954  20.926  -8.987  0.00  0.00     0.272 C 
BRANCH   7   8
HETATM    8  C   UNK N   1      28.680  19.723  -8.091  0.00  0.00     0.038 C 
BRANCH   8   9
HETATM    9  C   UNK N   1      29.963  19.378  -7.352  0.00  0.00     0.085 C 
BRANCH   9  10
HETATM   10  C   UNK N   1      30.785  20.483  -6.731  0.00  0.00     0.159 C 
HETATM   11  O   UNK N   1      31.845  20.744  -7.278  0.00  0.00    -0.292 OA
BRANCH  10  12
HETATM   12  C   UNK N   1      30.395  21.283  -5.533  0.00  0.00     0.010 A 
HETATM   13  C   UNK N   1      29.625  22.444  -5.718  0.00  0.00     0.018 A 
HETATM   14  C   UNK N   1      29.227  23.219  -4.627  0.00  0.00     0.043 A 
HETATM   15  C   UNK N   1      29.596  22.845  -3.335  0.00  0.00     0.116 A 
HETATM   16  C   UNK N   1      30.363  21.694  -3.134  0.00  0.00     0.043 A 
HETATM   17  F   UNK N   1      29.209  23.597  -2.277  0.00  0.00    -0.206 F 
HETATM   18  C   UNK N   1      30.760  20.917  -4.228  0.00  0.00     0.018 A 
ENDBRANCH  10  12
ENDBRANCH   9  10
ENDBRANCH   8   9
ENDBRANCH   7   8
ENDBRANCH   6   7
BRANCH   5  19
HETATM   19  C   UNK N   1      25.799  24.482  -6.976  0.00  0.00    -0.024 A 
HETATM   20  C   UNK N   1      25.850  24.162  -5.608  0.00  0.00     0.011 A 
HETATM   21  C   UNK N   1      25.875  25.173  -4.643  0.00  0.00     0.020 A 
HETATM   22  C   UNK N   1      25.842  26.512  -5.033  0.00  0.00     0.011 A 
HETATM   23  C   UNK N   1      25.794  26.845  -6.390  0.00  0.00     0.020 A 
HETATM   24 Br   UNK N   1      25.851  27.886  -3.711  0.00  0.00    -0.051 Br
HETATM   25  C   UNK N   1      25.777  25.835  -7.358  0.00  0.00     0.011 A 
ENDBRANCH   5  19
BRANCH   5  26
HETATM   26  O   UNK N   1      24.431  23.183  -8.444  0.00  0.00    -0.385 OA
HETATM   27  H   UNK N   1      23.829  22.538  -8.041  0.00  0.00     0.211 HD
ENDBRANCH   5  26
TORSDOF 7
ENDMDL
MODEL 5
REMARK VINA RESULT:      -7.2     18.811     22.706
REMARK  7 active torsions:
REMARK  status: ('A' for Active; 'I' for Inactive)
REMARK    1  A    between atoms: C_2  and  C_1 
REMARK    2  A    between atoms: C_13  and  C_1 
REMARK    3  A    between atoms: C_20  and  C_2 
REMARK    4  A    between atoms: N_24  and  C_13 
REMARK    5  A    between atoms: C_20  and  C_16 
REMARK    6  A    between atoms: C_21  and  C_17 
REMARK    7  A    between atoms: O_26  and  C_21 
ROOT
HETATM    1  C   UNK N   1      30.417  24.173  -3.522  0.00  0.00     0.073 C 
HETATM    2  C   UNK N   1      28.876  22.298  -2.773  0.00  0.00     0.073 C 
HETATM    3  C   UNK N   1      29.250  24.328  -4.498  0.00  0.00     0.276 C 
HETATM    4  C   UNK N   1      27.864  23.445  -2.661  0.00  0.00     0.276 C 
HETATM    5  C   UNK N   1      30.305  22.862  -2.720  0.00  0.00     0.088 C 
HETATM    6  N   UNK N   1      27.959  24.399  -3.784  0.00  0.00     0.088 N 
ENDROOT
BRANCH   6   7
HETATM    7  C   UNK N   1      26.854  24.079  -4.689  0.00  0.00     0.272 C 
BRANCH   7   8
HETATM    8  C   UNK N   1      27.262  24.058  -6.159  0.00  0.00     0.038 C 
BRANCH   8   9
HETATM    9  C   UNK N   1      26.097  24.583  -6.984  0.00  0.00     0.085 C 
BRANCH   9  10
HETATM   10  C   UNK N   1      26.015  26.058  -7.301  0.00  0.00     0.159 C 
HETATM   11  O   UNK N   1      25.737  26.350  -8.454  0.00  0.00    -0.292 OA
BRANCH  10  12
HETATM   12  C   UNK N   1      26.223  27.166  -6.324  0.00  0.00     0.010 A 
HETATM   13  C   UNK N   1      25.358  27.266  -5.221  0.00  0.00     0.018 A 
HETATM   14  C   UNK N   1      25.519  28.279  -4.275  0.00  0.00     0.043 A 
HETATM   15  C   UNK N   1      26.547  29.210  -4.420  0.00  0.00     0.116 A 
HETATM   16  C   UNK N   1      27.415  29.126  -5.511  0.00  0.00     0.043 A 
HETATM   17  F   UNK N   1      26.704  30.193  -3.501  0.00  0.00    -0.206 F 
HETATM   18  C   UNK N   1      27.254  28.109  -6.459  0.00  0.00     0.018 A 
ENDBRANCH  10  12
ENDBRANCH   9  10
ENDBRANCH   8   9
ENDBRANCH   7   8
ENDBRANCH   6   7
BRANCH   5  19
HETATM   19  C   UNK N   1      31.282  21.841  -3.265  0.00  0.00    -0.024 A 
HETATM   20  C   UNK N   1      30.885  20.930  -4.260  0.00  0.00     0.011 A 
HETATM   21  C   UNK N   1      31.782  19.975  -4.746  0.00  0.00     0.020 A 
HETATM   22  C   UNK N   1      33.081  19.915  -4.241  0.00  0.00     0.011 A 
HETATM   23  C   UNK N   1      33.491  20.817  -3.254  0.00  0.00     0.020 A 
HETATM   24 Br   UNK N   1      34.293  18.595  -4.890  0.00  0.00    -0.051 Br
HETATM   25  C   UNK N   1      32.597  21.779  -2.771  0.00  0.00     0.011 A 
ENDBRANCH   5  19
BRANCH   5  26
HETATM   26  O   UNK N   1      30.607  23.157  -1.386  0.00  0.00    -0.385 OA
HETATM   27  H   UNK N   1      29.956  23.475  -0.742  0.00  0.00     0.211 HD
ENDBRANCH   5  26
TORSDOF 7
ENDMDL
MODEL 6
REMARK VINA RESULT:      -7.1     20.599     23.370
REMARK  7 active torsions:
REMARK  status: ('A' for Active; 'I' for Inactive)
REMARK    1  A    between atoms: C_2  and  C_1 
REMARK    2  A    between atoms: C_13  and  C_1 
REMARK    3  A    between atoms: C_20  and  C_2 
REMARK    4  A    between atoms: N_24  and  C_13 
REMARK    5  A    between atoms: C_20  and  C_16 
REMARK    6  A    between atoms: C_21  and  C_17 
REMARK    7  A    between atoms: O_26  and  C_21 
ROOT
HETATM    1  C   UNK N   1      27.829  25.639  -8.343  0.00  0.00     0.073 C 
HETATM    2  C   UNK N   1      25.974  24.515  -7.020  0.00  0.00     0.073 C 
HETATM    3  C   UNK N   1      28.555  24.418  -7.777  0.00  0.00     0.276 C 
HETATM    4  C   UNK N   1      26.354  23.313  -7.894  0.00  0.00     0.276 C 
HETATM    5  C   UNK N   1      26.440  25.814  -7.697  0.00  0.00     0.088 C 
HETATM    6  N   UNK N   1      27.814  23.172  -8.066  0.00  0.00     0.088 N 
ENDROOT
BRANCH   6   7
HETATM    7  C   UNK N   1      28.233  22.104  -7.156  0.00  0.00     0.272 C 
BRANCH   7   8
HETATM    8  C   UNK N   1      29.734  22.094  -6.886  0.00  0.00     0.038 C 
BRANCH   8   9
HETATM    9  C   UNK N   1      29.982  21.312  -5.606  0.00  0.00     0.085 C 
BRANCH   9  10
HETATM   10  C   UNK N   1      30.063  22.047  -4.289  0.00  0.00     0.159 C 
HETATM   11  O   UNK N   1      30.347  21.376  -3.309  0.00  0.00    -0.292 OA
BRANCH  10  12
HETATM   12  C   UNK N   1      29.847  23.512  -4.100  0.00  0.00     0.010 A 
HETATM   13  C   UNK N   1      30.964  24.338  -3.891  0.00  0.00     0.018 A 
HETATM   14  C   UNK N   1      30.814  25.715  -3.721  0.00  0.00     0.043 A 
HETATM   15  C   UNK N   1      29.541  26.286  -3.754  0.00  0.00     0.116 A 
HETATM   16  C   UNK N   1      28.420  25.479  -3.960  0.00  0.00     0.043 A 
HETATM   17  F   UNK N   1      29.395  27.623  -3.590  0.00  0.00    -0.206 F 
HETATM   18  C   UNK N   1      28.572  24.098  -4.132  0.00  0.00     0.018 A 
ENDBRANCH  10  12
ENDBRANCH   9  10
ENDBRANCH   8   9
ENDBRANCH   7   8
ENDBRANCH   6   7
BRANCH   5  19
HETATM   19  C   UNK N   1      26.484  26.937  -6.682  0.00  0.00    -0.024 A 
HETATM   20  C   UNK N   1      27.466  27.940  -6.766  0.00  0.00     0.011 A 
HETATM   21  C   UNK N   1      27.519  28.963  -5.816  0.00  0.00     0.020 A 
HETATM   22  C   UNK N   1      26.596  28.993  -4.769  0.00  0.00     0.011 A 
HETATM   23  C   UNK N   1      25.612  28.005  -4.676  0.00  0.00     0.020 A 
HETATM   24 Br   UNK N   1      26.687  30.378  -3.463  0.00  0.00    -0.051 Br
HETATM   25  C   UNK N   1      25.553  26.984  -5.630  0.00  0.00     0.011 A 
ENDBRANCH   5  19
BRANCH   5  26
HETATM   26  O   UNK N   1      25.536  26.120  -8.720  0.00  0.00    -0.385 OA
HETATM   27  H   UNK N   1      24.610  25.833  -8.726  0.00  0.00     0.211 HD
ENDBRANCH   5  26
TORSDOF 7
ENDMDL
MODEL 7
REMARK VINA RESULT:      -7.1      5.037      9.714
REMARK  7 active torsions:
REMARK  status: ('A' for Active; 'I' for Inactive)
REMARK    1  A    between atoms: C_2  and  C_1 
REMARK    2  A    between atoms: C_13  and  C_1 
REMARK    3  A    between atoms: C_20  and  C_2 
REMARK    4  A    between atoms: N_24  and  C_13 
REMARK    5  A    between atoms: C_20  and  C_16 
REMARK    6  A    between atoms: C_21  and  C_17 
REMARK    7  A    between atoms: O_26  and  C_21 
ROOT
HETATM    1  C   UNK N   1      35.964  12.643  10.679  0.00  0.00     0.073 C 
HETATM    2  C   UNK N   1      36.185  14.945  11.728  0.00  0.00     0.073 C 
HETATM    3  C   UNK N   1      34.695  13.331  10.175  0.00  0.00     0.276 C 
HETATM    4  C   UNK N   1      36.026  15.403  10.273  0.00  0.00     0.276 C 
HETATM    5  C   UNK N   1      36.666  13.486  11.762  0.00  0.00     0.088 C 
HETATM    6  N   UNK N   1      35.003  14.629   9.541  0.00  0.00     0.088 N 
ENDROOT
BRANCH   6   7
HETATM    7  C   UNK N   1      33.807  15.472   9.491  0.00  0.00     0.272 C 
BRANCH   7   8
HETATM    8  C   UNK N   1      34.120  16.962   9.406  0.00  0.00     0.038 C 
BRANCH   8   9
HETATM    9  C   UNK N   1      33.152  17.597   8.419  0.00  0.00     0.085 C 
BRANCH   9  10
HETATM   10  C   UNK N   1      33.513  17.653   6.954  0.00  0.00     0.159 C 
HETATM   11  O   UNK N   1      34.669  17.946   6.690  0.00  0.00    -0.292 OA
BRANCH  10  12
HETATM   12  C   UNK N   1      32.586  17.359   5.822  0.00  0.00     0.010 A 
HETATM   13  C   UNK N   1      31.291  16.897   6.112  0.00  0.00     0.018 A 
HETATM   14  C   UNK N   1      30.385  16.619   5.087  0.00  0.00     0.043 A 
HETATM   15  C   UNK N   1      30.762  16.797   3.756  0.00  0.00     0.116 A 
HETATM   16  C   UNK N   1      32.047  17.256   3.451  0.00  0.00     0.043 A 
HETATM   17  F   UNK N   1      29.882  16.529   2.762  0.00  0.00    -0.206 F 
HETATM   18  C   UNK N   1      32.954  17.535   4.479  0.00  0.00     0.018 A 
ENDBRANCH  10  12
ENDBRANCH   9  10
ENDBRANCH   8   9
ENDBRANCH   7   8
ENDBRANCH   6   7
BRANCH   5  19
HETATM   19  C   UNK N   1      36.403  12.888  13.128  0.00  0.00    -0.024 A 
HETATM   20  C   UNK N   1      35.357  13.373  13.933  0.00  0.00     0.011 A 
HETATM   21  C   UNK N   1      35.130  12.835  15.202  0.00  0.00     0.020 A 
HETATM   22  C   UNK N   1      35.949  11.812  15.684  0.00  0.00     0.011 A 
HETATM   23  C   UNK N   1      36.990  11.318  14.894  0.00  0.00     0.020 A 
HETATM   24 Br   UNK N   1      35.649  11.099  17.426  0.00  0.00    -0.051 Br
HETATM   25  C   UNK N   1      37.214  11.850  13.619  0.00  0.00     0.011 A 
ENDBRANCH   5  19
BRANCH   5  26
HETATM   26  O   UNK N   1      38.036  13.473  11.483  0.00  0.00    -0.385 OA
HETATM   27  H   UNK N   1      38.703  13.079  12.066  0.00  0.00     0.211 HD
ENDBRANCH   5  26
TORSDOF 7
ENDMDL
MODEL 8
REMARK VINA RESULT:      -6.9     19.919     24.030
REMARK  7 active torsions:
REMARK  status: ('A' for Active; 'I' for Inactive)
REMARK    1  A    between atoms: C_2  and  C_1 
REMARK    2  A    between atoms: C_13  and  C_1 
REMARK    3  A    between atoms: C_20  and  C_2 
REMARK    4  A    between atoms: N_24  and  C_13 
REMARK    5  A    between atoms: C_20  and  C_16 
REMARK    6  A    between atoms: C_21  and  C_17 
REMARK    7  A    between atoms: O_26  and  C_21 
ROOT
HETATM    1  C   UNK N   1      27.773  25.906  -4.059  0.00  0.00     0.073 C 
HETATM    2  C   UNK N   1      26.247  24.089  -4.964  0.00  0.00     0.073 C 
HETATM    3  C   UNK N   1      27.415  26.466  -5.435  0.00  0.00     0.276 C 
HETATM    4  C   UNK N   1      25.281  25.267  -5.141  0.00  0.00     0.276 C 
HETATM    5  C   UNK N   1      27.309  24.444  -3.911  0.00  0.00     0.088 C 
HETATM    6  N   UNK N   1      25.952  26.482  -5.645  0.00  0.00     0.088 N 
ENDROOT
BRANCH   6   7
HETATM    7  C   UNK N   1      25.639  26.563  -7.073  0.00  0.00     0.272 C 
BRANCH   7   8
HETATM    8  C   UNK N   1      26.874  26.521  -7.966  0.00  0.00     0.038 C 
BRANCH   8   9
HETATM    9  C   UNK N   1      26.448  26.046  -9.346  0.00  0.00     0.085 C 
BRANCH   9  10
HETATM   10  C   UNK N   1      25.782  24.698  -9.497  0.00  0.00     0.159 C 
HETATM   11  O   UNK N   1      24.699  24.688 -10.062  0.00  0.00    -0.292 OA
BRANCH  10  12
HETATM   12  C   UNK N   1      26.347  23.397  -9.035  0.00  0.00     0.010 A 
HETATM   13  C   UNK N   1      27.673  23.078  -9.374  0.00  0.00     0.018 A 
HETATM   14  C   UNK N   1      28.249  21.877  -8.956  0.00  0.00     0.043 A 
HETATM   15  C   UNK N   1      27.506  20.976  -8.193  0.00  0.00     0.116 A 
HETATM   16  C   UNK N   1      26.186  21.277  -7.849  0.00  0.00     0.043 A 
HETATM   17  F   UNK N   1      28.065  19.812  -7.787  0.00  0.00    -0.206 F 
HETATM   18  C   UNK N   1      25.610  22.482  -8.267  0.00  0.00     0.018 A 
ENDBRANCH  10  12
ENDBRANCH   9  10
ENDBRANCH   8   9
ENDBRANCH   7   8
ENDBRANCH   6   7
BRANCH   5  19
HETATM   19  C   UNK N   1      28.496  23.513  -4.042  0.00  0.00    -0.024 A 
HETATM   20  C   UNK N   1      29.280  23.189  -2.920  0.00  0.00     0.011 A 
HETATM   21  C   UNK N   1      30.388  22.348  -3.047  0.00  0.00     0.020 A 
HETATM   22  C   UNK N   1      30.730  21.826  -4.296  0.00  0.00     0.011 A 
HETATM   23  C   UNK N   1      29.958  22.136  -5.419  0.00  0.00     0.020 A 
HETATM   24 Br   UNK N   1      32.257  20.698  -4.467  0.00  0.00    -0.051 Br
HETATM   25  C   UNK N   1      28.843  22.972  -5.293  0.00  0.00     0.011 A 
ENDBRANCH   5  19
BRANCH   5  26
HETATM   26  O   UNK N   1      26.728  24.312  -2.646  0.00  0.00    -0.385 OA
HETATM   27  H   UNK N   1      26.331  23.491  -2.316  0.00  0.00     0.211 HD
ENDBRANCH   5  26
TORSDOF 7
ENDMDL
MODEL 9
REMARK VINA RESULT:      -6.8      7.759     11.155
REMARK  7 active torsions:
REMARK  status: ('A' for Active; 'I' for Inactive)
REMARK    1  A    between atoms: C_2  and  C_1 
REMARK    2  A    between atoms: C_13  and  C_1 
REMARK    3  A    between atoms: C_20  and  C_2 
REMARK    4  A    between atoms: N_24  and  C_13 
REMARK    5  A    between atoms: C_20  and  C_16 
REMARK    6  A    between atoms: C_21  and  C_17 
REMARK    7  A    between atoms: O_26  and  C_21 
ROOT
HETATM    1  C   UNK N   1      26.822  20.911   5.417  0.00  0.00     0.073 C 
HETATM    2  C   UNK N   1      27.007  18.397   5.115  0.00  0.00     0.073 C 
HETATM    3  C   UNK N   1      27.007  20.444   6.861  0.00  0.00     0.276 C 
HETATM    4  C   UNK N   1      28.320  18.603   5.879  0.00  0.00     0.276 C 
HETATM    5  C   UNK N   1      26.569  19.721   4.471  0.00  0.00     0.088 C 
HETATM    6  N   UNK N   1      28.186  19.564   6.993  0.00  0.00     0.088 N 
ENDROOT
BRANCH   6   7
HETATM    7  C   UNK N   1      28.094  18.764   8.216  0.00  0.00     0.272 C 
BRANCH   7   8
HETATM    8  C   UNK N   1      29.426  18.619   8.946  0.00  0.00     0.038 C 
BRANCH   8   9
HETATM    9  C   UNK N   1      29.894  17.180   8.801  0.00  0.00     0.085 C 
BRANCH   9  10
HETATM   10  C   UNK N   1      31.161  16.884   8.034  0.00  0.00     0.159 C 
HETATM   11  O   UNK N   1      31.079  16.916   6.816  0.00  0.00    -0.292 OA
BRANCH  10  12
HETATM   12  C   UNK N   1      32.490  16.582   8.642  0.00  0.00     0.010 A 
HETATM   13  C   UNK N   1      33.503  17.554   8.569  0.00  0.00     0.018 A 
HETATM   14  C   UNK N   1      34.759  17.322   9.132  0.00  0.00     0.043 A 
HETATM   15  C   UNK N   1      35.022  16.112   9.774  0.00  0.00     0.116 A 
HETATM   16  C   UNK N   1      34.026  15.134   9.854  0.00  0.00     0.043 A 
HETATM   17  F   UNK N   1      36.240  15.888  10.321  0.00  0.00    -0.206 F 
HETATM   18  C   UNK N   1      32.767  15.369   9.290  0.00  0.00     0.018 A 
ENDBRANCH  10  12
ENDBRANCH   9  10
ENDBRANCH   8   9
ENDBRANCH   7   8
ENDBRANCH   6   7
BRANCH   5  19
HETATM   19  C   UNK N   1      25.100  19.658   4.107  0.00  0.00    -0.024 A 
HETATM   20  C   UNK N   1      24.270  18.663   4.653  0.00  0.00     0.011 A 
HETATM   21  C   UNK N   1      22.920  18.592   4.300  0.00  0.00     0.020 A 
HETATM   22  C   UNK N   1      22.386  19.509   3.393  0.00  0.00     0.011 A 
HETATM   23  C   UNK N   1      23.199  20.505   2.845  0.00  0.00     0.020 A 
HETATM   24 Br   UNK N   1      20.550  19.392   2.897  0.00  0.00    -0.051 Br
HETATM   25  C   UNK N   1      24.549  20.583   3.203  0.00  0.00     0.011 A 
ENDBRANCH   5  19
BRANCH   5  26
HETATM   26  O   UNK N   1      27.343  19.924   3.324  0.00  0.00    -0.385 OA
HETATM   27  H   UNK N   1      27.156  20.603   2.658  0.00  0.00     0.211 HD
ENDBRANCH   5  26
TORSDOF 7
ENDMDL
