MODEL 1
REMARK VINA RESULT:      -7.9      0.000      0.000
REMARK  6 active torsions:
REMARK  status: ('A' for Active; 'I' for Inactive)
REMARK    1  A    between atoms: C_2  and  N_3 
REMARK    2  A    between atoms: C_9  and  N_30 
REMARK    3  A    between atoms: C_10  and  C_14 
REMARK    4  A    between atoms: C_19  and  C_21 
REMARK    5  A    between atoms: C_21  and  C_22 
REMARK    6  A    between atoms: N_30  and  C_31 
ROOT
HETATM    1  N   UNK N   1      27.432  19.438   5.583  0.00  0.00    -0.277 N 
HETATM    2  C   UNK N   1      28.260  18.779   6.414  0.00  0.00     0.136 A 
HETATM    3  C   UNK N   1      29.170  18.084   5.690  0.00  0.00     0.054 A 
HETATM    4  C   UNK N   1      28.879  18.341   4.363  0.00  0.00     0.125 A 
HETATM    5  N   UNK N   1      27.804  19.171   4.335  0.00  0.00    -0.307 N 
ATOM      6  HN  UNK N   1      27.355  19.531   3.493  1.00  0.00     0.186 HD
HETATM    7  C   UNK N   1      30.152  17.313   6.299  0.00  0.00     0.060 A 
HETATM    8  C   UNK N   1      30.133  17.245   7.726  0.00  0.00     0.059 A 
HETATM    9  C   UNK N   1      29.166  18.010   8.430  0.00  0.00     0.108 A 
HETATM   10  N   UNK N   1      28.249  18.773   7.768  0.00  0.00    -0.349 N 
ATOM     11  HN  UNK N   1      27.567  19.329   8.284  1.00  0.00     0.167 HD
ENDROOT
BRANCH   8  12
HETATM   12  C   UNK N   1      30.984  16.340   8.526  0.00  0.00     0.178 A 
HETATM   13  N   UNK N   1      30.833  16.069   9.838  0.00  0.00    -0.277 N 
HETATM   14  N   UNK N   1      31.882  15.348  10.202  0.00  0.00    -0.281 N 
ATOM     15  HN  UNK N   1      30.059  16.362  10.434  1.00  0.00     0.189 HD
HETATM   16  C   UNK N   1      32.646  15.202   9.102  0.00  0.00     0.145 A 
ATOM     17  HN  UNK N   1      32.075  14.976  11.133  1.00  0.00     0.189 HD
HETATM   18  O   UNK N   1      32.101  15.815   8.083  0.00  0.00    -0.277 OA
BRANCH  16  19
HETATM   19  C   UNK N   1      33.947  14.474   9.035  0.00  0.00     0.134 C 
BRANCH  19  20
HETATM   20  C   UNK N   1      34.747  14.549  10.299  0.00  0.00     0.014 A 
HETATM   21  C   UNK N   1      35.365  15.663  10.900  0.00  0.00     0.019 A 
HETATM   22  N   UNK N   1      36.007  15.395  12.091  0.00  0.00    -0.357 N 
HETATM   23  C   UNK N   1      35.349  17.037  10.321  0.00  0.00     0.069 C 
HETATM   24  C   UNK N   1      35.901  14.090  12.446  0.00  0.00     0.047 A 
ATOM     25  HN  UNK N   1      36.502  16.098  12.641  1.00  0.00     0.166 HD
HETATM   26  S   UNK N   1      35.034  13.271  11.305  0.00  0.00    -0.079 SA
HETATM   27  C   UNK N   1      36.474  13.510  13.688  0.00  0.00     0.076 C 
ENDBRANCH  19  20
ENDBRANCH  16  19
ENDBRANCH   8  12
BRANCH   7  28
HETATM   28  N   UNK N   1      31.118  16.665   5.482  0.00  0.00    -0.383 N 
HETATM   29  H   UNK N   1      31.094  15.684   5.405  0.00  0.00     0.160 HD
BRANCH  28  30
HETATM   30  C   UNK N   1      32.134  17.399   4.760  0.00  0.00     0.085 C 
HETATM   31  C   UNK N   1      32.343  16.775   3.368  0.00  0.00     0.051 C 
HETATM   32  C   UNK N   1      33.133  15.453   3.441  0.00  0.00     0.169 C 
HETATM   33  O   UNK N   1      33.372  15.060   4.773  0.00  0.00    -0.391 OA
HETATM   34  C   UNK N   1      34.213  16.042   5.326  0.00  0.00     0.169 C 
HETATM   35  C   UNK N   1      33.450  17.361   5.547  0.00  0.00     0.051 C 
ENDBRANCH  28  30
ENDBRANCH   7  28
BRANCH   1  36
HETATM   36  C   UNK N   1      26.300  20.318   5.886  0.00  0.00     0.146 C 
HETATM   37  C   UNK N   1      26.705  21.684   6.420  0.00  0.00     0.028 C 
ENDBRANCH   1  36
TORSDOF 6
ENDMDL
MODEL 2
REMARK VINA RESULT:      -7.7      4.305      7.456
REMARK  6 active torsions:
REMARK  status: ('A' for Active; 'I' for Inactive)
REMARK    1  A    between atoms: C_2  and  N_3 
REMARK    2  A    between atoms: C_9  and  N_30 
REMARK    3  A    between atoms: C_10  and  C_14 
REMARK    4  A    between atoms: C_19  and  C_21 
REMARK    5  A    between atoms: C_21  and  C_22 
REMARK    6  A    between atoms: N_30  and  C_31 
ROOT
HETATM    1  N   UNK N   1      33.291  16.319   8.213  0.00  0.00    -0.277 N 
HETATM    2  C   UNK N   1      33.964  16.035   9.343  0.00  0.00     0.136 A 
HETATM    3  C   UNK N   1      33.774  14.732   9.667  0.00  0.00     0.054 A 
HETATM    4  C   UNK N   1      32.954  14.209   8.686  0.00  0.00     0.125 A 
HETATM    5  N   UNK N   1      32.673  15.212   7.813  0.00  0.00    -0.307 N 
ATOM      6  HN  UNK N   1      32.083  15.129   6.985  1.00  0.00     0.186 HD
HETATM    7  C   UNK N   1      34.362  14.168  10.793  0.00  0.00     0.060 A 
HETATM    8  C   UNK N   1      35.139  15.034  11.623  0.00  0.00     0.059 A 
HETATM    9  C   UNK N   1      35.315  16.384  11.222  0.00  0.00     0.108 A 
HETATM   10  N   UNK N   1      34.735  16.865  10.084  0.00  0.00    -0.349 N 
ATOM     11  HN  UNK N   1      34.879  17.833   9.797  1.00  0.00     0.167 HD
ENDROOT
BRANCH   8  12
HETATM   12  C   UNK N   1      35.684  14.650  12.942  0.00  0.00     0.178 A 
HETATM   13  N   UNK N   1      36.813  15.132  13.500  0.00  0.00    -0.277 N 
HETATM   14  N   UNK N   1      37.029  14.423  14.598  0.00  0.00    -0.281 N 
ATOM     15  HN  UNK N   1      37.388  15.896  13.145  1.00  0.00     0.189 HD
HETATM   16  C   UNK N   1      36.026  13.526  14.676  0.00  0.00     0.145 A 
ATOM     17  HN  UNK N   1      37.802  14.533  15.254  1.00  0.00     0.189 HD
HETATM   18  O   UNK N   1      35.212  13.660  13.662  0.00  0.00    -0.277 OA
BRANCH  16  19
HETATM   19  C   UNK N   1      35.861  12.496  15.744  0.00  0.00     0.134 C 
BRANCH  19  20
HETATM   20  C   UNK N   1      36.592  11.218  15.469  0.00  0.00     0.014 A 
HETATM   21  C   UNK N   1      36.295   9.909  15.897  0.00  0.00     0.019 A 
HETATM   22  N   UNK N   1      37.162   8.940  15.437  0.00  0.00    -0.357 N 
HETATM   23  C   UNK N   1      35.143   9.563  16.778  0.00  0.00     0.069 C 
HETATM   24  C   UNK N   1      38.137   9.459  14.648  0.00  0.00     0.047 A 
ATOM     25  HN  UNK N   1      37.079   7.949  15.664  1.00  0.00     0.166 HD
HETATM   26  S   UNK N   1      37.939  11.092  14.521  0.00  0.00    -0.079 SA
HETATM   27  C   UNK N   1      39.202   8.656  13.995  0.00  0.00     0.076 C 
ENDBRANCH  19  20
ENDBRANCH  16  19
ENDBRANCH   8  12
BRANCH   7  28
HETATM   28  N   UNK N   1      34.178  12.781  11.037  0.00  0.00    -0.383 N 
HETATM   29  H   UNK N   1      33.460  12.496  11.648  0.00  0.00     0.160 HD
BRANCH  28  30
HETATM   30  C   UNK N   1      35.011  11.772  10.420  0.00  0.00     0.085 C 
HETATM   31  C   UNK N   1      34.134  10.745   9.683  0.00  0.00     0.051 C 
HETATM   32  C   UNK N   1      33.428   9.782  10.659  0.00  0.00     0.169 C 
HETATM   33  O   UNK N   1      33.652  10.143  12.002  0.00  0.00    -0.391 OA
HETATM   34  C   UNK N   1      35.030   9.978  12.228  0.00  0.00     0.169 C 
HETATM   35  C   UNK N   1      35.842  11.064  11.498  0.00  0.00     0.051 C 
ENDBRANCH  28  30
ENDBRANCH   7  28
BRANCH   1  36
HETATM   36  C   UNK N   1      33.189  17.578   7.471  0.00  0.00     0.146 C 
HETATM   37  C   UNK N   1      33.644  17.480   6.023  0.00  0.00     0.028 C 
ENDBRANCH   1  36
TORSDOF 6
ENDMDL
MODEL 3
REMARK VINA RESULT:      -7.6      1.650      2.180
REMARK  6 active torsions:
REMARK  status: ('A' for Active; 'I' for Inactive)
REMARK    1  A    between atoms: C_2  and  N_3 
REMARK    2  A    between atoms: C_9  and  N_30 
REMARK    3  A    between atoms: C_10  and  C_14 
REMARK    4  A    between atoms: C_19  and  C_21 
REMARK    5  A    between atoms: C_21  and  C_22 
REMARK    6  A    between atoms: N_30  and  C_31 
ROOT
HETATM    1  N   UNK N   1      28.425  18.445   6.060  0.00  0.00    -0.277 N 
HETATM    2  C   UNK N   1      29.395  18.020   6.890  0.00  0.00     0.136 A 
HETATM    3  C   UNK N   1      30.235  17.194   6.219  0.00  0.00     0.054 A 
HETATM    4  C   UNK N   1      29.750  17.125   4.926  0.00  0.00     0.125 A 
HETATM    5  N   UNK N   1      28.636  17.900   4.867  0.00  0.00    -0.307 N 
ATOM      6  HN  UNK N   1      28.056  18.041   4.039  1.00  0.00     0.186 HD
HETATM    7  C   UNK N   1      31.334  16.612   6.838  0.00  0.00     0.060 A 
HETATM    8  C   UNK N   1      31.515  16.882   8.229  0.00  0.00     0.059 A 
HETATM    9  C   UNK N   1      30.613  17.769   8.873  0.00  0.00     0.108 A 
HETATM   10  N   UNK N   1      29.571  18.333   8.195  0.00  0.00    -0.349 N 
ATOM     11  HN  UNK N   1      28.936  18.979   8.664  1.00  0.00     0.167 HD
ENDROOT
BRANCH   8  12
HETATM   12  C   UNK N   1      32.518  16.211   9.082  0.00  0.00     0.178 A 
HETATM   13  N   UNK N   1      32.295  15.139   9.868  0.00  0.00    -0.277 N 
HETATM   14  N   UNK N   1      33.396  14.951  10.580  0.00  0.00    -0.281 N 
ATOM     15  HN  UNK N   1      31.442  14.580   9.907  1.00  0.00     0.189 HD
HETATM   16  C   UNK N   1      34.259  15.917  10.208  0.00  0.00     0.145 A 
ATOM     17  HN  UNK N   1      33.559  14.220  11.272  1.00  0.00     0.189 HD
HETATM   18  O   UNK N   1      33.720  16.689   9.301  0.00  0.00    -0.277 OA
BRANCH  16  19
HETATM   19  C   UNK N   1      35.633  16.115  10.759  0.00  0.00     0.134 C 
BRANCH  19  20
HETATM   20  C   UNK N   1      36.413  14.847  10.907  0.00  0.00     0.014 A 
HETATM   21  C   UNK N   1      36.623  14.056  12.055  0.00  0.00     0.019 A 
HETATM   22  N   UNK N   1      37.375  12.919  11.843  0.00  0.00    -0.357 N 
HETATM   23  C   UNK N   1      36.091  14.392  13.406  0.00  0.00     0.069 C 
HETATM   24  C   UNK N   1      37.759  12.793  10.547  0.00  0.00     0.047 A 
ATOM     25  HN  UNK N   1      37.614  12.251  12.576  1.00  0.00     0.166 HD
HETATM   26  S   UNK N   1      37.185  14.069   9.671  0.00  0.00    -0.079 SA
HETATM   27  C   UNK N   1      38.560  11.661  10.017  0.00  0.00     0.076 C 
ENDBRANCH  19  20
ENDBRANCH  16  19
ENDBRANCH   8  12
BRANCH   7  28
HETATM   28  N   UNK N   1      32.213  15.812   6.059  0.00  0.00    -0.383 N 
HETATM   29  H   UNK N   1      31.935  14.899   5.816  0.00  0.00     0.160 HD
BRANCH  28  30
HETATM   30  C   UNK N   1      33.502  16.293   5.612  0.00  0.00     0.085 C 
HETATM   31  C   UNK N   1      33.313  17.371   4.530  0.00  0.00     0.051 C 
HETATM   32  C   UNK N   1      32.900  16.762   3.175  0.00  0.00     0.169 C 
HETATM   33  O   UNK N   1      32.671  15.376   3.273  0.00  0.00    -0.391 OA
HETATM   34  C   UNK N   1      33.911  14.795   3.594  0.00  0.00     0.169 C 
HETATM   35  C   UNK N   1      34.316  15.124   5.043  0.00  0.00     0.051 C 
ENDBRANCH  28  30
ENDBRANCH   7  28
BRANCH   1  36
HETATM   36  C   UNK N   1      27.297  19.346   6.316  0.00  0.00     0.146 C 
HETATM   37  C   UNK N   1      27.219  20.524   5.357  0.00  0.00     0.028 C 
ENDBRANCH   1  36
TORSDOF 6
ENDMDL
MODEL 4
REMARK VINA RESULT:      -7.6      1.517      1.778
REMARK  6 active torsions:
REMARK  status: ('A' for Active; 'I' for Inactive)
REMARK    1  A    between atoms: C_2  and  N_3 
REMARK    2  A    between atoms: C_9  and  N_30 
REMARK    3  A    between atoms: C_10  and  C_14 
REMARK    4  A    between atoms: C_19  and  C_21 
REMARK    5  A    between atoms: C_21  and  C_22 
REMARK    6  A    between atoms: N_30  and  C_31 
ROOT
HETATM    1  N   UNK N   1      27.631  18.560   5.081  0.00  0.00    -0.277 N 
HETATM    2  C   UNK N   1      28.576  18.199   5.967  0.00  0.00     0.136 A 
HETATM    3  C   UNK N   1      29.535  17.477   5.338  0.00  0.00     0.054 A 
HETATM    4  C   UNK N   1      29.151  17.405   4.012  0.00  0.00     0.125 A 
HETATM    5  N   UNK N   1      27.976  18.076   3.892  0.00  0.00    -0.307 N 
ATOM      6  HN  UNK N   1      27.444  18.189   3.028  1.00  0.00     0.186 HD
HETATM    7  C   UNK N   1      30.638  16.978   6.020  0.00  0.00     0.060 A 
HETATM    8  C   UNK N   1      30.695  17.218   7.428  0.00  0.00     0.059 A 
HETATM    9  C   UNK N   1      29.669  17.997   8.027  0.00  0.00     0.108 A 
HETATM   10  N   UNK N   1      28.629  18.484   7.289  0.00  0.00    -0.349 N 
ATOM     11  HN  UNK N   1      27.905  19.054   7.727  1.00  0.00     0.167 HD
ENDROOT
BRANCH   8  12
HETATM   12  C   UNK N   1      31.693  16.615   8.334  0.00  0.00     0.178 A 
HETATM   13  N   UNK N   1      32.554  17.290   9.123  0.00  0.00    -0.277 N 
HETATM   14  N   UNK N   1      33.376  16.393   9.647  0.00  0.00    -0.281 N 
ATOM     15  HN  UNK N   1      32.567  18.297   9.285  1.00  0.00     0.189 HD
HETATM   16  C   UNK N   1      32.995  15.196   9.160  0.00  0.00     0.145 A 
ATOM     17  HN  UNK N   1      34.145  16.573  10.292  1.00  0.00     0.189 HD
HETATM   18  O   UNK N   1      31.975  15.334   8.353  0.00  0.00    -0.277 OA
BRANCH  16  19
HETATM   19  C   UNK N   1      33.646  13.887   9.460  0.00  0.00     0.134 C 
BRANCH  19  20
HETATM   20  C   UNK N   1      35.132  13.974   9.620  0.00  0.00     0.014 A 
HETATM   21  C   UNK N   1      35.895  14.162  10.789  0.00  0.00     0.019 A 
HETATM   22  N   UNK N   1      37.261  14.165  10.593  0.00  0.00    -0.357 N 
HETATM   23  C   UNK N   1      35.308  14.349  12.146  0.00  0.00     0.069 C 
HETATM   24  C   UNK N   1      37.591  13.975   9.290  0.00  0.00     0.047 A 
ATOM     25  HN  UNK N   1      37.942  14.293  11.341  1.00  0.00     0.166 HD
HETATM   26  S   UNK N   1      36.219  13.813   8.387  0.00  0.00    -0.079 SA
HETATM   27  C   UNK N   1      38.984  13.912   8.779  0.00  0.00     0.076 C 
ENDBRANCH  19  20
ENDBRANCH  16  19
ENDBRANCH   8  12
BRANCH   7  28
HETATM   28  N   UNK N   1      31.641  16.288   5.287  0.00  0.00    -0.383 N 
HETATM   29  H   UNK N   1      31.519  15.329   5.101  0.00  0.00     0.160 HD
BRANCH  28  30
HETATM   30  C   UNK N   1      32.835  16.947   4.807  0.00  0.00     0.085 C 
HETATM   31  C   UNK N   1      32.998  16.703   3.296  0.00  0.00     0.051 C 
HETATM   32  C   UNK N   1      33.482  15.271   2.991  0.00  0.00     0.169 C 
HETATM   33  O   UNK N   1      33.543  14.482   4.157  0.00  0.00    -0.391 OA
HETATM   34  C   UNK N   1      34.536  15.059   4.969  0.00  0.00     0.169 C 
HETATM   35  C   UNK N   1      34.058  16.401   5.554  0.00  0.00     0.051 C 
ENDBRANCH  28  30
ENDBRANCH   7  28
BRANCH   1  36
HETATM   36  C   UNK N   1      26.408  19.344   5.276  0.00  0.00     0.146 C 
HETATM   37  C   UNK N   1      26.648  20.841   5.398  0.00  0.00     0.028 C 
ENDBRANCH   1  36
TORSDOF 6
ENDMDL
MODEL 5
REMARK VINA RESULT:      -7.5      4.403      7.181
REMARK  6 active torsions:
REMARK  status: ('A' for Active; 'I' for Inactive)
REMARK    1  A    between atoms: C_2  and  N_3 
REMARK    2  A    between atoms: C_9  and  N_30 
REMARK    3  A    between atoms: C_10  and  C_14 
REMARK    4  A    between atoms: C_19  and  C_21 
REMARK    5  A    between atoms: C_21  and  C_22 
REMARK    6  A    between atoms: N_30  and  C_31 
ROOT
HETATM    1  N   UNK N   1      21.924  19.946   3.301  0.00  0.00    -0.277 N 
HETATM    2  C   UNK N   1      23.239  19.686   3.417  0.00  0.00     0.136 A 
HETATM    3  C   UNK N   1      23.425  18.676   4.301  0.00  0.00     0.054 A 
HETATM    4  C   UNK N   1      22.164  18.308   4.732  0.00  0.00     0.125 A 
HETATM    5  N   UNK N   1      21.268  19.112   4.102  0.00  0.00    -0.307 N 
ATOM      6  HN  UNK N   1      20.255  19.080   4.224  1.00  0.00     0.186 HD
HETATM    7  C   UNK N   1      24.694  18.200   4.609  0.00  0.00     0.060 A 
HETATM    8  C   UNK N   1      25.801  18.856   3.988  0.00  0.00     0.059 A 
HETATM    9  C   UNK N   1      25.542  19.896   3.058  0.00  0.00     0.108 A 
HETATM   10  N   UNK N   1      24.266  20.292   2.777  0.00  0.00    -0.349 N 
ATOM     11  HN  UNK N   1      24.091  21.032   2.097  1.00  0.00     0.167 HD
ENDROOT
BRANCH   8  12
HETATM   12  C   UNK N   1      27.216  18.602   4.332  0.00  0.00     0.178 A 
HETATM   13  N   UNK N   1      28.230  19.480   4.199  0.00  0.00    -0.277 N 
HETATM   14  N   UNK N   1      29.346  18.816   4.463  0.00  0.00    -0.281 N 
ATOM     15  HN  UNK N   1      28.153  20.465   3.945  1.00  0.00     0.189 HD
HETATM   16  C   UNK N   1      28.980  17.551   4.747  0.00  0.00     0.145 A 
ATOM     17  HN  UNK N   1      30.296  19.189   4.453  1.00  0.00     0.189 HD
HETATM   18  O   UNK N   1      27.682  17.420   4.658  0.00  0.00    -0.277 OA
BRANCH  16  19
HETATM   19  C   UNK N   1      29.907  16.432   5.088  0.00  0.00     0.134 C 
BRANCH  19  20
HETATM   20  C   UNK N   1      31.252  16.886   5.563  0.00  0.00     0.014 A 
HETATM   21  C   UNK N   1      32.401  17.210   4.814  0.00  0.00     0.019 A 
HETATM   22  N   UNK N   1      33.481  17.629   5.564  0.00  0.00    -0.357 N 
HETATM   23  C   UNK N   1      32.480  17.120   3.329  0.00  0.00     0.069 C 
HETATM   24  C   UNK N   1      33.204  17.646   6.893  0.00  0.00     0.047 A 
ATOM     25  HN  UNK N   1      34.382  17.894   5.166  1.00  0.00     0.166 HD
HETATM   26  S   UNK N   1      31.651  17.148   7.145  0.00  0.00    -0.079 SA
HETATM   27  C   UNK N   1      34.165  18.069   7.944  0.00  0.00     0.076 C 
ENDBRANCH  19  20
ENDBRANCH  16  19
ENDBRANCH   8  12
BRANCH   7  28
HETATM   28  N   UNK N   1      24.813  17.093   5.491  0.00  0.00    -0.383 N 
HETATM   29  H   UNK N   1      24.757  17.250   6.461  0.00  0.00     0.160 HD
BRANCH  28  30
HETATM   30  C   UNK N   1      25.016  15.743   5.011  0.00  0.00     0.085 C 
HETATM   31  C   UNK N   1      23.658  15.086   4.705  0.00  0.00     0.051 C 
HETATM   32  C   UNK N   1      22.911  14.679   5.992  0.00  0.00     0.169 C 
HETATM   33  O   UNK N   1      23.587  15.115   7.148  0.00  0.00    -0.391 OA
HETATM   34  C   UNK N   1      24.808  14.418   7.175  0.00  0.00     0.169 C 
HETATM   35  C   UNK N   1      25.758  14.927   6.076  0.00  0.00     0.051 C 
ENDBRANCH  28  30
ENDBRANCH   7  28
BRANCH   1  36
HETATM   36  C   UNK N   1      21.230  20.937   2.474  0.00  0.00     0.146 C 
HETATM   37  C   UNK N   1      20.898  20.448   1.073  0.00  0.00     0.028 C 
ENDBRANCH   1  36
TORSDOF 6
ENDMDL
MODEL 6
REMARK VINA RESULT:      -7.4      4.279      6.464
REMARK  6 active torsions:
REMARK  status: ('A' for Active; 'I' for Inactive)
REMARK    1  A    between atoms: C_2  and  N_3 
REMARK    2  A    between atoms: C_9  and  N_30 
REMARK    3  A    between atoms: C_10  and  C_14 
REMARK    4  A    between atoms: C_19  and  C_21 
REMARK    5  A    between atoms: C_21  and  C_22 
REMARK    6  A    between atoms: N_30  and  C_31 
ROOT
HETATM    1  N   UNK N   1      21.813  19.011   3.495  0.00  0.00    -0.277 N 
HETATM    2  C   UNK N   1      23.143  18.933   3.681  0.00  0.00     0.136 A 
HETATM    3  C   UNK N   1      23.508  17.633   3.803  0.00  0.00     0.054 A 
HETATM    4  C   UNK N   1      22.344  16.897   3.680  0.00  0.00     0.125 A 
HETATM    5  N   UNK N   1      21.324  17.775   3.497  0.00  0.00    -0.307 N 
ATOM      6  HN  UNK N   1      20.341  17.526   3.381  1.00  0.00     0.186 HD
HETATM    7  C   UNK N   1      24.832  17.262   4.000  0.00  0.00     0.060 A 
HETATM    8  C   UNK N   1      25.791  18.315   4.118  0.00  0.00     0.059 A 
HETATM    9  C   UNK N   1      25.351  19.656   3.963  0.00  0.00     0.108 A 
HETATM   10  N   UNK N   1      24.037  19.948   3.738  0.00  0.00    -0.349 N 
ATOM     11  HN  UNK N   1      23.734  20.914   3.616  1.00  0.00     0.167 HD
ENDROOT
BRANCH   8  12
HETATM   12  C   UNK N   1      27.203  18.114   4.504  0.00  0.00     0.178 A 
HETATM   13  N   UNK N   1      28.263  18.775   3.996  0.00  0.00    -0.277 N 
HETATM   14  N   UNK N   1      29.347  18.192   4.486  0.00  0.00    -0.281 N 
ATOM     15  HN  UNK N   1      28.234  19.571   3.359  1.00  0.00     0.189 HD
HETATM   16  C   UNK N   1      28.917  17.189   5.276  0.00  0.00     0.145 A 
ATOM     17  HN  UNK N   1      30.316  18.451   4.300  1.00  0.00     0.189 HD
HETATM   18  O   UNK N   1      27.610  17.137   5.280  0.00  0.00    -0.277 OA
BRANCH  16  19
HETATM   19  C   UNK N   1      29.788  16.240   6.030  0.00  0.00     0.134 C 
BRANCH  19  20
HETATM   20  C   UNK N   1      30.816  16.913   6.885  0.00  0.00     0.014 A 
HETATM   21  C   UNK N   1      30.687  17.447   8.183  0.00  0.00     0.019 A 
HETATM   22  N   UNK N   1      31.848  17.977   8.708  0.00  0.00    -0.357 N 
HETATM   23  C   UNK N   1      29.413  17.457   8.956  0.00  0.00     0.069 C 
HETATM   24  C   UNK N   1      32.894  17.866   7.850  0.00  0.00     0.047 A 
ATOM     25  HN  UNK N   1      31.912  18.401   9.633  1.00  0.00     0.166 HD
HETATM   26  S   UNK N   1      32.397  17.130   6.459  0.00  0.00    -0.079 SA
HETATM   27  C   UNK N   1      34.274  18.329   8.146  0.00  0.00     0.076 C 
ENDBRANCH  19  20
ENDBRANCH  16  19
ENDBRANCH   8  12
BRANCH   7  28
HETATM   28  N   UNK N   1      25.155  15.879   4.051  0.00  0.00    -0.383 N 
HETATM   29  H   UNK N   1      25.413  15.483   4.914  0.00  0.00     0.160 HD
BRANCH  28  30
HETATM   30  C   UNK N   1      25.118  15.036   2.876  0.00  0.00     0.085 C 
HETATM   31  C   UNK N   1      25.295  13.562   3.283  0.00  0.00     0.051 C 
HETATM   32  C   UNK N   1      26.756  13.238   3.656  0.00  0.00     0.169 C 
HETATM   33  O   UNK N   1      27.563  14.393   3.658  0.00  0.00    -0.391 OA
HETATM   34  C   UNK N   1      27.598  14.849   2.328  0.00  0.00     0.169 C 
HETATM   35  C   UNK N   1      26.240  15.447   1.915  0.00  0.00     0.051 C 
ENDBRANCH  28  30
ENDBRANCH   7  28
BRANCH   1  36
HETATM   36  C   UNK N   1      20.957  20.186   3.310  0.00  0.00     0.146 C 
HETATM   37  C   UNK N   1      20.729  20.560   1.853  0.00  0.00     0.028 C 
ENDBRANCH   1  36
TORSDOF 6
ENDMDL
MODEL 7
REMARK VINA RESULT:      -7.3      3.683      9.759
REMARK  6 active torsions:
REMARK  status: ('A' for Active; 'I' for Inactive)
REMARK    1  A    between atoms: C_2  and  N_3 
REMARK    2  A    between atoms: C_9  and  N_30 
REMARK    3  A    between atoms: C_10  and  C_14 
REMARK    4  A    between atoms: C_19  and  C_21 
REMARK    5  A    between atoms: C_21  and  C_22 
REMARK    6  A    between atoms: N_30  and  C_31 
ROOT
HETATM    1  N   UNK N   1      35.072  11.398  16.526  0.00  0.00    -0.277 N 
HETATM    2  C   UNK N   1      35.246  12.172  15.438  0.00  0.00     0.136 A 
HETATM    3  C   UNK N   1      34.716  11.555  14.354  0.00  0.00     0.054 A 
HETATM    4  C   UNK N   1      34.194  10.359  14.812  0.00  0.00     0.125 A 
HETATM    5  N   UNK N   1      34.435  10.294  16.147  0.00  0.00    -0.307 N 
ATOM      6  HN  UNK N   1      34.171   9.523  16.760  1.00  0.00     0.186 HD
HETATM    7  C   UNK N   1      34.754  12.137  13.093  0.00  0.00     0.060 A 
HETATM    8  C   UNK N   1      35.421  13.395  12.978  0.00  0.00     0.059 A 
HETATM    9  C   UNK N   1      35.941  13.999  14.152  0.00  0.00     0.108 A 
HETATM   10  N   UNK N   1      35.840  13.385  15.367  0.00  0.00    -0.349 N 
ATOM     11  HN  UNK N   1      36.206  13.835  16.207  1.00  0.00     0.167 HD
ENDROOT
BRANCH   8  12
HETATM   12  C   UNK N   1      35.710  14.067  11.694  0.00  0.00     0.178 A 
HETATM   13  N   UNK N   1      36.756  14.881  11.447  0.00  0.00    -0.277 N 
HETATM   14  N   UNK N   1      36.564  15.396  10.242  0.00  0.00    -0.281 N 
ATOM     15  HN  UNK N   1      37.545  15.063  12.069  1.00  0.00     0.189 HD
HETATM   16  C   UNK N   1      35.402  14.884   9.790  0.00  0.00     0.145 A 
ATOM     17  HN  UNK N   1      37.173  16.052   9.753  1.00  0.00     0.189 HD
HETATM   18  O   UNK N   1      34.879  14.081  10.679  0.00  0.00    -0.277 OA
BRANCH  16  19
HETATM   19  C   UNK N   1      34.767  15.195   8.475  0.00  0.00     0.134 C 
BRANCH  19  20
HETATM   20  C   UNK N   1      33.567  16.083   8.579  0.00  0.00     0.014 A 
HETATM   21  C   UNK N   1      33.485  17.488   8.495  0.00  0.00     0.019 A 
HETATM   22  N   UNK N   1      32.208  17.999   8.603  0.00  0.00    -0.357 N 
HETATM   23  C   UNK N   1      34.663  18.380   8.306  0.00  0.00     0.069 C 
HETATM   24  C   UNK N   1      31.279  17.024   8.765  0.00  0.00     0.047 A 
ATOM     25  HN  UNK N   1      31.990  18.995   8.565  1.00  0.00     0.166 HD
HETATM   26  S   UNK N   1      32.017  15.548   8.781  0.00  0.00    -0.079 SA
HETATM   27  C   UNK N   1      29.819  17.270   8.890  0.00  0.00     0.076 C 
ENDBRANCH  19  20
ENDBRANCH  16  19
ENDBRANCH   8  12
BRANCH   7  28
HETATM   28  N   UNK N   1      34.118  11.468  12.012  0.00  0.00    -0.383 N 
HETATM   29  H   UNK N   1      33.219  11.761  11.735  0.00  0.00     0.160 HD
BRANCH  28  30
HETATM   30  C   UNK N   1      34.746  10.373  11.307  0.00  0.00     0.085 C 
HETATM   31  C   UNK N   1      35.157  10.826   9.894  0.00  0.00     0.051 C 
HETATM   32  C   UNK N   1      33.945  10.941   8.949  0.00  0.00     0.169 C 
HETATM   33  O   UNK N   1      32.730  10.725   9.628  0.00  0.00    -0.391 OA
HETATM   34  C   UNK N   1      32.755   9.387  10.062  0.00  0.00     0.169 C 
HETATM   35  C   UNK N   1      33.765   9.198  11.208  0.00  0.00     0.051 C 
ENDBRANCH  28  30
ENDBRANCH   7  28
BRANCH   1  36
HETATM   36  C   UNK N   1      35.466  11.630  17.918  0.00  0.00     0.146 C 
HETATM   37  C   UNK N   1      35.681  10.355  18.719  0.00  0.00     0.028 C 
ENDBRANCH   1  36
TORSDOF 6
ENDMDL
MODEL 8
REMARK VINA RESULT:      -7.2      7.117     10.646
REMARK  6 active torsions:
REMARK  status: ('A' for Active; 'I' for Inactive)
REMARK    1  A    between atoms: C_2  and  N_3 
REMARK    2  A    between atoms: C_9  and  N_30 
REMARK    3  A    between atoms: C_10  and  C_14 
REMARK    4  A    between atoms: C_19  and  C_21 
REMARK    5  A    between atoms: C_21  and  C_22 
REMARK    6  A    between atoms: N_30  and  C_31 
ROOT
HETATM    1  N   UNK N   1      23.061  12.500  10.694  0.00  0.00    -0.277 N 
HETATM    2  C   UNK N   1      23.576  13.042   9.575  0.00  0.00     0.136 A 
HETATM    3  C   UNK N   1      22.578  13.577   8.830  0.00  0.00     0.054 A 
HETATM    4  C   UNK N   1      21.411  13.352   9.536  0.00  0.00     0.125 A 
HETATM    5  N   UNK N   1      21.744  12.684  10.671  0.00  0.00    -0.307 N 
ATOM      6  HN  UNK N   1      21.090  12.374  11.390  1.00  0.00     0.186 HD
HETATM    7  C   UNK N   1      22.831  14.208   7.618  0.00  0.00     0.060 A 
HETATM    8  C   UNK N   1      24.186  14.226   7.165  0.00  0.00     0.059 A 
HETATM    9  C   UNK N   1      25.189  13.664   7.998  0.00  0.00     0.108 A 
HETATM   10  N   UNK N   1      24.874  13.088   9.195  0.00  0.00    -0.349 N 
ATOM     11  HN  UNK N   1      25.604  12.699   9.791  1.00  0.00     0.167 HD
ENDROOT
BRANCH   8  12
HETATM   12  C   UNK N   1      24.609  14.691   5.828  0.00  0.00     0.178 A 
HETATM   13  N   UNK N   1      25.220  13.942   4.888  0.00  0.00    -0.277 N 
HETATM   14  N   UNK N   1      25.569  14.766   3.911  0.00  0.00    -0.281 N 
ATOM     15  HN  UNK N   1      25.382  12.936   4.923  1.00  0.00     0.189 HD
HETATM   16  C   UNK N   1      25.163  15.995   4.285  0.00  0.00     0.145 A 
ATOM     17  HN  UNK N   1      26.051  14.519   3.047  1.00  0.00     0.189 HD
HETATM   18  O   UNK N   1      24.586  15.949   5.458  0.00  0.00    -0.277 OA
BRANCH  16  19
HETATM   19  C   UNK N   1      25.358  17.251   3.503  0.00  0.00     0.134 C 
BRANCH  19  20
HETATM   20  C   UNK N   1      26.245  18.251   4.177  0.00  0.00     0.014 A 
HETATM   21  C   UNK N   1      27.652  18.283   4.263  0.00  0.00     0.019 A 
HETATM   22  N   UNK N   1      28.165  19.372   4.938  0.00  0.00    -0.357 N 
HETATM   23  C   UNK N   1      28.545  17.241   3.682  0.00  0.00     0.069 C 
HETATM   24  C   UNK N   1      27.189  20.204   5.383  0.00  0.00     0.047 A 
ATOM     25  HN  UNK N   1      29.161  19.532   5.085  1.00  0.00     0.166 HD
HETATM   26  S   UNK N   1      25.711  19.606   4.957  0.00  0.00    -0.079 SA
HETATM   27  C   UNK N   1      27.438  21.465   6.126  0.00  0.00     0.076 C 
ENDBRANCH  19  20
ENDBRANCH  16  19
ENDBRANCH   8  12
BRANCH   7  28
HETATM   28  N   UNK N   1      21.748  14.808   6.921  0.00  0.00    -0.383 N 
HETATM   29  H   UNK N   1      21.103  14.229   6.456  0.00  0.00     0.160 HD
BRANCH  28  30
HETATM   30  C   UNK N   1      21.564  16.242   6.872  0.00  0.00     0.085 C 
HETATM   31  C   UNK N   1      20.579  16.682   7.971  0.00  0.00     0.051 C 
HETATM   32  C   UNK N   1      19.121  16.329   7.614  0.00  0.00     0.169 C 
HETATM   33  O   UNK N   1      19.041  15.576   6.426  0.00  0.00    -0.391 OA
HETATM   34  C   UNK N   1      19.496  16.420   5.396  0.00  0.00     0.169 C 
HETATM   35  C   UNK N   1      21.017  16.642   5.496  0.00  0.00     0.051 C 
ENDBRANCH  28  30
ENDBRANCH   7  28
BRANCH   1  36
HETATM   36  C   UNK N   1      23.731  11.814  11.802  0.00  0.00     0.146 C 
HETATM   37  C   UNK N   1      22.999  11.926  13.130  0.00  0.00     0.028 C 
ENDBRANCH   1  36
TORSDOF 6
ENDMDL
MODEL 9
REMARK VINA RESULT:      -6.8      4.001      6.557
REMARK  6 active torsions:
REMARK  status: ('A' for Active; 'I' for Inactive)
REMARK    1  A    between atoms: C_2  and  N_3 
REMARK    2  A    between atoms: C_9  and  N_30 
REMARK    3  A    between atoms: C_10  and  C_14 
REMARK    4  A    between atoms: C_19  and  C_21 
REMARK    5  A    between atoms: C_21  and  C_22 
REMARK    6  A    between atoms: N_30  and  C_31 
ROOT
HETATM    1  N   UNK N   1      33.766  16.354   6.162  0.00  0.00    -0.277 N 
HETATM    2  C   UNK N   1      34.005  15.903   7.407  0.00  0.00     0.136 A 
HETATM    3  C   UNK N   1      35.019  15.005   7.378  0.00  0.00     0.054 A 
HETATM    4  C   UNK N   1      35.412  14.915   6.055  0.00  0.00     0.125 A 
HETATM    5  N   UNK N   1      34.618  15.752   5.337  0.00  0.00    -0.307 N 
ATOM      6  HN  UNK N   1      34.668  15.895   4.328  1.00  0.00     0.186 HD
HETATM    7  C   UNK N   1      35.476  14.382   8.533  0.00  0.00     0.060 A 
HETATM    8  C   UNK N   1      34.797  14.694   9.751  0.00  0.00     0.059 A 
HETATM    9  C   UNK N   1      33.753  15.656   9.721  0.00  0.00     0.108 A 
HETATM   10  N   UNK N   1      33.376  16.254   8.553  0.00  0.00    -0.349 N 
ATOM     11  HN  UNK N   1      32.634  16.954   8.546  1.00  0.00     0.167 HD
ENDROOT
BRANCH   8  12
HETATM   12  C   UNK N   1      35.029  13.997  11.033  0.00  0.00     0.178 A 
HETATM   13  N   UNK N   1      34.324  12.947  11.500  0.00  0.00    -0.277 N 
HETATM   14  N   UNK N   1      34.741  12.728  12.738  0.00  0.00    -0.281 N 
ATOM     15  HN  UNK N   1      33.608  12.424  10.997  1.00  0.00     0.189 HD
HETATM   16  C   UNK N   1      35.688  13.653  12.991  0.00  0.00     0.145 A 
ATOM     17  HN  UNK N   1      34.412  12.002  13.374  1.00  0.00     0.189 HD
HETATM   18  O   UNK N   1      35.856  14.431  11.954  0.00  0.00    -0.277 OA
BRANCH  16  19
HETATM   19  C   UNK N   1      36.433  13.806  14.276  0.00  0.00     0.134 C 
BRANCH  19  20
HETATM   20  C   UNK N   1      36.513  12.547  15.082  0.00  0.00     0.014 A 
HETATM   21  C   UNK N   1      35.857  12.213  16.283  0.00  0.00     0.019 A 
HETATM   22  N   UNK N   1      36.129  10.945  16.756  0.00  0.00    -0.357 N 
HETATM   23  C   UNK N   1      34.937  13.130  17.013  0.00  0.00     0.069 C 
HETATM   24  C   UNK N   1      36.983  10.270  15.947  0.00  0.00     0.047 A 
ATOM     25  HN  UNK N   1      35.732  10.562  17.614  1.00  0.00     0.166 HD
HETATM   26  S   UNK N   1      37.407  11.221  14.666  0.00  0.00    -0.079 SA
HETATM   27  C   UNK N   1      37.443   8.878  16.188  0.00  0.00     0.076 C 
ENDBRANCH  19  20
ENDBRANCH  16  19
ENDBRANCH   8  12
BRANCH   7  28
HETATM   28  N   UNK N   1      36.588  13.503   8.442  0.00  0.00    -0.383 N 
HETATM   29  H   UNK N   1      36.441  12.580   8.131  0.00  0.00     0.160 HD
BRANCH  28  30
HETATM   30  C   UNK N   1      37.929  13.918   8.791  0.00  0.00     0.085 C 
HETATM   31  C   UNK N   1      38.860  13.762   7.575  0.00  0.00     0.051 C 
HETATM   32  C   UNK N   1      39.221  12.286   7.310  0.00  0.00     0.169 C 
HETATM   33  O   UNK N   1      38.518  11.414   8.164  0.00  0.00    -0.391 OA
HETATM   34  C   UNK N   1      38.969  11.693   9.467  0.00  0.00     0.169 C 
HETATM   35  C   UNK N   1      38.445  13.058   9.952  0.00  0.00     0.051 C 
ENDBRANCH  28  30
ENDBRANCH   7  28
BRANCH   1  36
HETATM   36  C   UNK N   1      32.780  17.328   5.687  0.00  0.00     0.146 C 
HETATM   37  C   UNK N   1      32.807  17.549   4.182  0.00  0.00     0.028 C 
ENDBRANCH   1  36
TORSDOF 6
ENDMDL
