REMARK  11 active torsions:
REMARK  status: ('A' for Active; 'I' for Inactive)
REMARK    1  A    between atoms: C_2  and  O_3 
REMARK    2  A    between atoms: O_3  and  C_4 
REMARK    3  A    between atoms: C_4  and  C_6 
REMARK    4  A    between atoms: C_9  and  O_12 
REMARK    5  A    between atoms: O_12  and  C_13 
REMARK    6  A    between atoms: C_13  and  C_15 
REMARK    7  A    between atoms: C_15  and  C_16 
REMARK    8  A    between atoms: C_16  and  C_17 
REMARK    9  A    between atoms: C_17  and  C_18 
REMARK   10  A    between atoms: C_18  and  C_19 
REMARK   11  A    between atoms: C_19  and  N_20 
REMARK       I    between atoms: N_20  and  C_21 
REMARK       I    between atoms: C_21  and  N_24 
ROOT
HETATM    1  C   UNK N   1       2.072   1.483  -0.235  0.00  0.00     0.264 C 
HETATM    2  O   UNK N   1       2.485   2.610  -0.474  0.00  0.00    -0.265 OA
ENDROOT
BRANCH   1   3
HETATM    3  O   UNK N   1       0.750   1.243  -0.041  0.00  0.00    -0.279 OA
BRANCH   3   4
HETATM    4  C   UNK N   1      -0.274   2.133  -0.016  0.00  0.00     0.079 A 
HETATM    5  C   UNK N   1      -0.082   3.524  -0.084  0.00  0.00     0.038 A 
HETATM    6  C   UNK N   1      -1.185   4.388  -0.063  0.00  0.00     0.020 A 
HETATM    7  C   UNK N   1      -2.492   3.875   0.021  0.00  0.00     0.039 A 
HETATM    8  C   UNK N   1      -2.664   2.489   0.098  0.00  0.00     0.020 A 
HETATM    9  C   UNK N   1      -1.570   1.629   0.083  0.00  0.00     0.038 A 
BRANCH   7  10
HETATM   10  C   UNK N   1      -3.659   4.813   0.020  0.00  0.00     0.293 C 
HETATM   11  O   UNK N   1      -3.442   6.013  -0.008  0.00  0.00    -0.259 OA
BRANCH  10  12
HETATM   12  O   UNK N   1      -4.961   4.399   0.039  0.00  0.00    -0.318 OA
BRANCH  12  13
HETATM   13  C   UNK N   1      -5.389   3.092   0.022  0.00  0.00     0.174 C 
HETATM   14  C   UNK N   1      -6.902   3.046   0.005  0.00  0.00     0.034 C 
ENDBRANCH  12  13
ENDBRANCH  10  12
ENDBRANCH   7  10
ENDBRANCH   3   4
ENDBRANCH   1   3
BRANCH   1  15
HETATM   15  C   UNK N   1       3.010   0.311  -0.180  0.00  0.00     0.111 C 
BRANCH  15  16
HETATM   16  C   UNK N   1       4.476   0.659  -0.382  0.00  0.00     0.010 C 
BRANCH  16  17
HETATM   17  C   UNK N   1       5.110   1.133   0.920  0.00  0.00     0.002 C 
BRANCH  17  18
HETATM   18  C   UNK N   1       5.031   2.647   1.057  0.00  0.00     0.020 C 
BRANCH  18  19
HETATM   19  C   UNK N   1       5.760   3.348  -0.083  0.00  0.00     0.138 C 
BRANCH  19  20
HETATM   20  N   UNK N   1       7.171   3.449   0.197  0.00  0.00    -0.227 N 
HETATM   21  C   UNK N   1       8.088   2.415  -0.127  0.00  0.00     0.665 C 
HETATM   22  N   UNK N   1       9.335   2.580   0.110  0.00  0.00    -0.235 N 
HETATM   23  N   UNK N   1       7.645   1.212  -0.722  0.00  0.00    -0.235 N 
HETATM   24  H   UNK N   1       9.924   1.813   0.293  0.00  0.00     0.174 HD
ATOM     25  HN  UNK N   1       9.725   3.523   0.110  1.00  0.00     0.174 HD
HETATM   26  H   UNK N   1       6.765   1.060  -1.136  0.00  0.00     0.174 HD
HETATM   27  H   UNK N   1       8.275   0.455  -0.722  0.00  0.00     0.174 HD
HETATM   28  H   UNK N   1       7.511   4.265   0.630  0.00  0.00     0.177 HD
ENDBRANCH  19  20
ENDBRANCH  18  19
ENDBRANCH  17  18
ENDBRANCH  16  17
ENDBRANCH  15  16
ENDBRANCH   1  15
TORSDOF 11
