MODEL 1
REMARK VINA RESULT:      -7.0      0.000      0.000
REMARK  4 active torsions:
REMARK  status: ('A' for Active; 'I' for Inactive)
REMARK    1  A    between atoms: C_11  and  C_6 
REMARK    2  A    between atoms: C_12  and  C_6 
REMARK    3  A    between atoms: N_22  and  C_11 
REMARK    4  A    between atoms: N_23  and  C_12 
ROOT
HETATM    1  C   UNK N   1      33.059  16.860   3.456  0.00  0.00     0.002 A 
HETATM    2  C   UNK N   1      29.504  18.291   9.799  0.00  0.00     0.002 A 
HETATM    3  C   UNK N   1      31.914  16.444   2.788  0.00  0.00     0.002 A 
HETATM    4  C   UNK N   1      28.259  17.922   9.305  0.00  0.00     0.002 A 
HETATM    5  C   UNK N   1      32.981  17.236   4.795  0.00  0.00     0.031 A 
HETATM    6  C   UNK N   1      30.631  18.176   8.988  0.00  0.00     0.031 A 
HETATM    7  C   UNK N   1      30.695  16.408   3.462  0.00  0.00     0.021 A 
HETATM    8  C   UNK N   1      28.148  17.442   8.002  0.00  0.00     0.021 A 
HETATM    9  C   UNK N   1      31.756  17.208   5.498  0.00  0.00     0.052 A 
HETATM   10  C   UNK N   1      30.544  17.701   7.663  0.00  0.00     0.052 A 
HETATM   11  C   UNK N   1      30.600  16.789   4.807  0.00  0.00     0.032 A 
HETATM   12  C   UNK N   1      29.273  17.329   7.174  0.00  0.00     0.032 A 
HETATM   13  N   UNK N   1      31.744  17.602   6.876  0.00  0.00    -0.345 N 
HETATM   14  S   UNK N   1      28.979  16.668   5.543  0.00  0.00    -0.086 SA
ENDROOT
BRANCH  13  15
HETATM   15  C   UNK N   1      33.028  17.831   7.519  0.00  0.00     0.131 C 
BRANCH  15  16
HETATM   16  C   UNK N   1      33.603  16.576   8.145  0.00  0.00     0.050 C 
BRANCH  16  17
HETATM   17  C   UNK N   1      34.567  17.024   9.232  0.00  0.00     0.274 C 
BRANCH  17  18
HETATM   18  N   UNK N   1      35.141  15.882   9.929  0.00  0.00     0.091 N 
HETATM   19  C   UNK N   1      34.137  14.822   9.915  0.00  0.00     0.302 C 
HETATM   20  C   UNK N   1      34.677  13.599  10.657  0.00  0.00     0.302 C 
HETATM   21  N   UNK N   1      35.000  13.949  12.041  0.00  0.00     0.087 N 
HETATM   22  C   UNK N   1      35.650  12.794  12.632  0.00  0.00     0.310 C 
HETATM   23  C   UNK N   1      35.970  15.043  12.061  0.00  0.00     0.302 C 
HETATM   24  C   UNK N   1      35.396  16.247  11.323  0.00  0.00     0.302 C 
ENDBRANCH  17  18
ENDBRANCH  16  17
ENDBRANCH  15  16
ENDBRANCH  13  15
TORSDOF 4
ENDMDL
MODEL 2
REMARK VINA RESULT:      -6.8      0.376      3.874
REMARK  4 active torsions:
REMARK  status: ('A' for Active; 'I' for Inactive)
REMARK    1  A    between atoms: C_11  and  C_6 
REMARK    2  A    between atoms: C_12  and  C_6 
REMARK    3  A    between atoms: N_22  and  C_11 
REMARK    4  A    between atoms: N_23  and  C_12 
ROOT
HETATM    1  C   UNK N   1      29.321  18.276   9.778  0.00  0.00     0.002 A 
HETATM    2  C   UNK N   1      33.343  16.515   3.807  0.00  0.00     0.002 A 
HETATM    3  C   UNK N   1      28.108  18.229   9.101  0.00  0.00     0.002 A 
HETATM    4  C   UNK N   1      32.242  16.411   2.968  0.00  0.00     0.002 A 
HETATM    5  C   UNK N   1      30.509  18.048   9.085  0.00  0.00     0.031 A 
HETATM    6  C   UNK N   1      33.166  16.889   5.137  0.00  0.00     0.031 A 
HETATM    7  C   UNK N   1      28.088  17.951   7.736  0.00  0.00     0.021 A 
HETATM    8  C   UNK N   1      30.968  16.681   3.463  0.00  0.00     0.021 A 
HETATM    9  C   UNK N   1      30.511  17.765   7.702  0.00  0.00     0.052 A 
HETATM   10  C   UNK N   1      31.886  17.160   5.666  0.00  0.00     0.052 A 
HETATM   11  C   UNK N   1      29.273  17.714   7.028  0.00  0.00     0.032 A 
HETATM   12  C   UNK N   1      30.775  17.051   4.801  0.00  0.00     0.032 A 
HETATM   13  N   UNK N   1      31.768  17.545   7.046  0.00  0.00    -0.345 N 
HETATM   14  S   UNK N   1      29.092  17.396   5.281  0.00  0.00    -0.086 SA
ENDROOT
BRANCH  13  15
HETATM   15  C   UNK N   1      32.977  17.810   7.810  0.00  0.00     0.131 C 
BRANCH  15  16
HETATM   16  C   UNK N   1      33.391  16.637   8.677  0.00  0.00     0.050 C 
BRANCH  16  17
HETATM   17  C   UNK N   1      34.875  16.800   8.964  0.00  0.00     0.274 C 
BRANCH  17  18
HETATM   18  N   UNK N   1      35.360  15.743   9.840  0.00  0.00     0.091 N 
HETATM   19  C   UNK N   1      34.386  14.656   9.779  0.00  0.00     0.302 C 
HETATM   20  C   UNK N   1      34.833  13.522  10.703  0.00  0.00     0.302 C 
HETATM   21  N   UNK N   1      34.942  14.005  12.081  0.00  0.00     0.087 N 
HETATM   22  C   UNK N   1      35.518  12.928  12.865  0.00  0.00     0.310 C 
HETATM   23  C   UNK N   1      35.879  15.125  12.139  0.00  0.00     0.302 C 
HETATM   24  C   UNK N   1      35.400  16.240  11.216  0.00  0.00     0.302 C 
ENDBRANCH  17  18
ENDBRANCH  16  17
ENDBRANCH  15  16
ENDBRANCH  13  15
TORSDOF 4
ENDMDL
MODEL 3
REMARK VINA RESULT:      -6.5      5.083     11.165
REMARK  4 active torsions:
REMARK  status: ('A' for Active; 'I' for Inactive)
REMARK    1  A    between atoms: C_11  and  C_6 
REMARK    2  A    between atoms: C_12  and  C_6 
REMARK    3  A    between atoms: N_22  and  C_11 
REMARK    4  A    between atoms: N_23  and  C_12 
ROOT
HETATM    1  C   UNK N   1      35.095  13.602  18.342  0.00  0.00     0.002 A 
HETATM    2  C   UNK N   1      35.551   8.298  13.186  0.00  0.00     0.002 A 
HETATM    3  C   UNK N   1      35.341  12.736  19.401  0.00  0.00     0.002 A 
HETATM    4  C   UNK N   1      35.818   7.288  14.100  0.00  0.00     0.002 A 
HETATM    5  C   UNK N   1      35.022  13.103  17.043  0.00  0.00     0.031 A 
HETATM    6  C   UNK N   1      35.319   9.595  13.637  0.00  0.00     0.031 A 
HETATM    7  C   UNK N   1      35.517  11.376  19.156  0.00  0.00     0.021 A 
HETATM    8  C   UNK N   1      35.853   7.580  15.462  0.00  0.00     0.021 A 
HETATM    9  C   UNK N   1      35.197  11.728  16.772  0.00  0.00     0.052 A 
HETATM   10  C   UNK N   1      35.357   9.919  15.009  0.00  0.00     0.052 A 
HETATM   11  C   UNK N   1      35.453  10.861  17.855  0.00  0.00     0.032 A 
HETATM   12  C   UNK N   1      35.629   8.882  15.928  0.00  0.00     0.032 A 
HETATM   13  N   UNK N   1      35.105  11.277  15.414  0.00  0.00    -0.345 N 
HETATM   14  S   UNK N   1      35.673   9.096  17.699  0.00  0.00    -0.086 SA
ENDROOT
BRANCH  13  15
HETATM   15  C   UNK N   1      34.654  12.236  14.418  0.00  0.00     0.131 C 
BRANCH  15  16
HETATM   16  C   UNK N   1      35.773  13.120  13.906  0.00  0.00     0.050 C 
BRANCH  16  17
HETATM   17  C   UNK N   1      35.765  13.011  12.390  0.00  0.00     0.274 C 
BRANCH  17  18
HETATM   18  N   UNK N   1      35.094  14.154  11.785  0.00  0.00     0.091 N 
HETATM   19  C   UNK N   1      34.654  13.738  10.456  0.00  0.00     0.302 C 
HETATM   20  C   UNK N   1      33.961  14.911   9.760  0.00  0.00     0.302 C 
HETATM   21  N   UNK N   1      34.881  16.042   9.639  0.00  0.00     0.087 N 
HETATM   22  C   UNK N   1      34.115  17.160   9.120  0.00  0.00     0.310 C 
HETATM   23  C   UNK N   1      35.363  16.432  10.963  0.00  0.00     0.302 C 
HETATM   24  C   UNK N   1      36.056  15.246  11.623  0.00  0.00     0.302 C 
ENDBRANCH  17  18
ENDBRANCH  16  17
ENDBRANCH  15  16
ENDBRANCH  13  15
TORSDOF 4
ENDMDL
MODEL 4
REMARK VINA RESULT:      -6.4      5.458     10.392
REMARK  4 active torsions:
REMARK  status: ('A' for Active; 'I' for Inactive)
REMARK    1  A    between atoms: C_11  and  C_6 
REMARK    2  A    between atoms: C_12  and  C_6 
REMARK    3  A    between atoms: N_22  and  C_11 
REMARK    4  A    between atoms: N_23  and  C_12 
ROOT
HETATM    1  C   UNK N   1      35.363   8.939  12.681  0.00  0.00     0.002 A 
HETATM    2  C   UNK N   1      35.077  13.502  18.514  0.00  0.00     0.002 A 
HETATM    3  C   UNK N   1      35.653   7.815  13.445  0.00  0.00     0.002 A 
HETATM    4  C   UNK N   1      35.351  12.503  19.440  0.00  0.00     0.002 A 
HETATM    5  C   UNK N   1      35.230  10.180  13.299  0.00  0.00     0.031 A 
HETATM    6  C   UNK N   1      35.047  13.195  17.156  0.00  0.00     0.031 A 
HETATM    7  C   UNK N   1      35.807   7.937  14.824  0.00  0.00     0.021 A 
HETATM    8  C   UNK N   1      35.592  11.203  19.002  0.00  0.00     0.021 A 
HETATM    9  C   UNK N   1      35.382  10.327  14.696  0.00  0.00     0.052 A 
HETATM   10  C   UNK N   1      35.279  11.886  16.686  0.00  0.00     0.052 A 
HETATM   11  C   UNK N   1      35.670   9.177  15.461  0.00  0.00     0.032 A 
HETATM   12  C   UNK N   1      35.557  10.881  17.638  0.00  0.00     0.032 A 
HETATM   13  N   UNK N   1      35.238  11.633  15.271  0.00  0.00    -0.345 N 
HETATM   14  S   UNK N   1      35.919   9.182  17.228  0.00  0.00    -0.086 SA
ENDROOT
BRANCH  13  15
HETATM   15  C   UNK N   1      35.127  12.759  14.357  0.00  0.00     0.131 C 
BRANCH  15  16
HETATM   16  C   UNK N   1      36.475  13.272  13.893  0.00  0.00     0.050 C 
BRANCH  16  17
HETATM   17  C   UNK N   1      36.252  14.671  13.343  0.00  0.00     0.274 C 
BRANCH  17  18
HETATM   18  N   UNK N   1      35.640  14.625  12.022  0.00  0.00     0.091 N 
HETATM   19  C   UNK N   1      36.515  13.821  11.173  0.00  0.00     0.302 C 
HETATM   20  C   UNK N   1      35.934  13.758   9.760  0.00  0.00     0.302 C 
HETATM   21  N   UNK N   1      35.814  15.106   9.202  0.00  0.00     0.087 N 
HETATM   22  C   UNK N   1      35.114  14.981   7.936  0.00  0.00     0.310 C 
HETATM   23  C   UNK N   1      34.978  15.930  10.073  0.00  0.00     0.302 C 
HETATM   24  C   UNK N   1      35.591  15.980  11.468  0.00  0.00     0.302 C 
ENDBRANCH  17  18
ENDBRANCH  16  17
ENDBRANCH  15  16
ENDBRANCH  13  15
TORSDOF 4
ENDMDL
MODEL 5
REMARK VINA RESULT:      -6.2      8.172     10.870
REMARK  4 active torsions:
REMARK  status: ('A' for Active; 'I' for Inactive)
REMARK    1  A    between atoms: C_11  and  C_6 
REMARK    2  A    between atoms: C_12  and  C_6 
REMARK    3  A    between atoms: N_22  and  C_11 
REMARK    4  A    between atoms: N_23  and  C_12 
ROOT
HETATM    1  C   UNK N   1      19.848  18.336   3.038  0.00  0.00     0.002 A 
HETATM    2  C   UNK N   1      27.115  17.919   4.433  0.00  0.00     0.002 A 
HETATM    3  C   UNK N   1      19.903  19.655   2.604  0.00  0.00     0.002 A 
HETATM    4  C   UNK N   1      27.372  19.223   4.029  0.00  0.00     0.002 A 
HETATM    5  C   UNK N   1      21.006  17.709   3.493  0.00  0.00     0.031 A 
HETATM    6  C   UNK N   1      25.808  17.437   4.419  0.00  0.00     0.031 A 
HETATM    7  C   UNK N   1      21.116  20.339   2.623  0.00  0.00     0.021 A 
HETATM    8  C   UNK N   1      26.321  20.037   3.613  0.00  0.00     0.021 A 
HETATM    9  C   UNK N   1      22.246  18.384   3.522  0.00  0.00     0.052 A 
HETATM   10  C   UNK N   1      24.728  18.238   3.994  0.00  0.00     0.052 A 
HETATM   11  C   UNK N   1      22.290  19.720   3.072  0.00  0.00     0.032 A 
HETATM   12  C   UNK N   1      25.004  19.561   3.587  0.00  0.00     0.032 A 
HETATM   13  N   UNK N   1      23.400  17.684   4.006  0.00  0.00    -0.345 N 
HETATM   14  S   UNK N   1      23.761  20.730   3.062  0.00  0.00    -0.086 SA
ENDROOT
BRANCH  13  15
HETATM   15  C   UNK N   1      23.187  16.379   4.612  0.00  0.00     0.131 C 
BRANCH  15  16
HETATM   16  C   UNK N   1      22.673  16.471   6.035  0.00  0.00     0.050 C 
BRANCH  16  17
HETATM   17  C   UNK N   1      21.817  15.238   6.278  0.00  0.00     0.274 C 
BRANCH  17  18
HETATM   18  N   UNK N   1      22.005  14.725   7.628  0.00  0.00     0.091 N 
HETATM   19  C   UNK N   1      22.517  13.363   7.502  0.00  0.00     0.302 C 
HETATM   20  C   UNK N   1      22.711  12.762   8.896  0.00  0.00     0.302 C 
HETATM   21  N   UNK N   1      21.438  12.742   9.619  0.00  0.00     0.087 N 
HETATM   22  C   UNK N   1      21.727  12.313  10.975  0.00  0.00     0.310 C 
HETATM   23  C   UNK N   1      20.897  14.097   9.706  0.00  0.00     0.302 C 
HETATM   24  C   UNK N   1      20.706  14.661   8.302  0.00  0.00     0.302 C 
ENDBRANCH  17  18
ENDBRANCH  16  17
ENDBRANCH  15  16
ENDBRANCH  13  15
TORSDOF 4
ENDMDL
MODEL 6
REMARK VINA RESULT:      -6.2      6.470     10.066
REMARK  4 active torsions:
REMARK  status: ('A' for Active; 'I' for Inactive)
REMARK    1  A    between atoms: C_11  and  C_6 
REMARK    2  A    between atoms: C_12  and  C_6 
REMARK    3  A    between atoms: N_22  and  C_11 
REMARK    4  A    between atoms: N_23  and  C_12 
ROOT
HETATM    1  C   UNK N   1      23.154  11.572  10.006  0.00  0.00     0.002 A 
HETATM    2  C   UNK N   1      22.272  17.144   5.199  0.00  0.00     0.002 A 
HETATM    3  C   UNK N   1      22.057  11.931  10.781  0.00  0.00     0.002 A 
HETATM    4  C   UNK N   1      21.147  17.651   5.835  0.00  0.00     0.002 A 
HETATM    5  C   UNK N   1      23.510  12.351   8.908  0.00  0.00     0.031 A 
HETATM    6  C   UNK N   1      22.928  16.037   5.735  0.00  0.00     0.031 A 
HETATM    7  C   UNK N   1      21.319  13.065  10.451  0.00  0.00     0.021 A 
HETATM    8  C   UNK N   1      20.683  17.049   7.003  0.00  0.00     0.021 A 
HETATM    9  C   UNK N   1      22.776  13.506   8.555  0.00  0.00     0.052 A 
HETATM   10  C   UNK N   1      22.474  15.404   6.911  0.00  0.00     0.052 A 
HETATM   11  C   UNK N   1      21.661  13.855   9.345  0.00  0.00     0.032 A 
HETATM   12  C   UNK N   1      21.329  15.932   7.547  0.00  0.00     0.032 A 
HETATM   13  N   UNK N   1      23.197  14.268   7.416  0.00  0.00    -0.345 N 
HETATM   14  S   UNK N   1      20.639  15.290   9.062  0.00  0.00    -0.086 SA
ENDROOT
BRANCH  13  15
HETATM   15  C   UNK N   1      24.465  13.909   6.801  0.00  0.00     0.131 C 
BRANCH  15  16
HETATM   16  C   UNK N   1      25.640  14.652   7.406  0.00  0.00     0.050 C 
BRANCH  16  17
HETATM   17  C   UNK N   1      26.495  15.144   6.249  0.00  0.00     0.274 C 
BRANCH  17  18
HETATM   18  N   UNK N   1      26.612  16.596   6.264  0.00  0.00     0.091 N 
HETATM   19  C   UNK N   1      26.316  17.063   4.912  0.00  0.00     0.302 C 
HETATM   20  C   UNK N   1      26.448  18.586   4.860  0.00  0.00     0.302 C 
HETATM   21  N   UNK N   1      27.806  18.988   5.230  0.00  0.00     0.087 N 
HETATM   22  C   UNK N   1      27.812  20.437   5.313  0.00  0.00     0.310 C 
HETATM   23  C   UNK N   1      28.126  18.482   6.563  0.00  0.00     0.302 C 
HETATM   24  C   UNK N   1      27.995  16.963   6.577  0.00  0.00     0.302 C 
ENDBRANCH  17  18
ENDBRANCH  16  17
ENDBRANCH  15  16
ENDBRANCH  13  15
TORSDOF 4
ENDMDL
MODEL 7
REMARK VINA RESULT:      -6.2     13.296     15.610
REMARK  4 active torsions:
REMARK  status: ('A' for Active; 'I' for Inactive)
REMARK    1  A    between atoms: C_11  and  C_6 
REMARK    2  A    between atoms: C_12  and  C_6 
REMARK    3  A    between atoms: N_22  and  C_11 
REMARK    4  A    between atoms: N_23  and  C_12 
ROOT
HETATM    1  C   UNK N   1      29.017  21.564  -7.057  0.00  0.00     0.002 A 
HETATM    2  C   UNK N   1      25.976  27.340  -3.547  0.00  0.00     0.002 A 
HETATM    3  C   UNK N   1      28.346  21.804  -8.249  0.00  0.00     0.002 A 
HETATM    4  C   UNK N   1      25.227  27.744  -4.644  0.00  0.00     0.002 A 
HETATM    5  C   UNK N   1      28.780  22.380  -5.953  0.00  0.00     0.031 A 
HETATM    6  C   UNK N   1      26.765  26.195  -3.633  0.00  0.00     0.031 A 
HETATM    7  C   UNK N   1      27.443  22.861  -8.334  0.00  0.00     0.021 A 
HETATM    8  C   UNK N   1      25.273  27.003  -5.823  0.00  0.00     0.021 A 
HETATM    9  C   UNK N   1      27.869  23.457  -6.016  0.00  0.00     0.052 A 
HETATM   10  C   UNK N   1      26.835  25.431  -4.817  0.00  0.00     0.052 A 
HETATM   11  C   UNK N   1      27.199  23.695  -7.234  0.00  0.00     0.032 A 
HETATM   12  C   UNK N   1      26.068  25.854  -5.925  0.00  0.00     0.032 A 
HETATM   13  N   UNK N   1      27.666  24.257  -4.843  0.00  0.00    -0.345 N 
HETATM   14  S   UNK N   1      25.998  24.991  -7.485  0.00  0.00    -0.086 SA
ENDROOT
BRANCH  13  15
HETATM   15  C   UNK N   1      28.273  23.797  -3.604  0.00  0.00     0.131 C 
BRANCH  15  16
HETATM   16  C   UNK N   1      29.716  24.236  -3.461  0.00  0.00     0.050 C 
BRANCH  16  17
HETATM   17  C   UNK N   1      30.373  23.285  -2.474  0.00  0.00     0.274 C 
BRANCH  17  18
HETATM   18  N   UNK N   1      31.514  22.608  -3.076  0.00  0.00     0.091 N 
HETATM   19  C   UNK N   1      31.903  23.386  -4.249  0.00  0.00     0.302 C 
HETATM   20  C   UNK N   1      33.087  22.707  -4.939  0.00  0.00     0.302 C 
HETATM   21  N   UNK N   1      32.722  21.351  -5.350  0.00  0.00     0.087 N 
HETATM   22  C   UNK N   1      33.929  20.718  -5.849  0.00  0.00     0.310 C 
HETATM   23  C   UNK N   1      32.286  20.581  -4.186  0.00  0.00     0.302 C 
HETATM   24  C   UNK N   1      31.100  21.279  -3.529  0.00  0.00     0.302 C 
ENDBRANCH  17  18
ENDBRANCH  16  17
ENDBRANCH  15  16
ENDBRANCH  13  15
TORSDOF 4
ENDMDL
MODEL 8
REMARK VINA RESULT:      -6.1     14.377     18.116
REMARK  4 active torsions:
REMARK  status: ('A' for Active; 'I' for Inactive)
REMARK    1  A    between atoms: C_11  and  C_6 
REMARK    2  A    between atoms: C_12  and  C_6 
REMARK    3  A    between atoms: N_22  and  C_11 
REMARK    4  A    between atoms: N_23  and  C_12 
ROOT
HETATM    1  C   UNK N   1      30.273  22.697  -3.646  0.00  0.00     0.002 A 
HETATM    2  C   UNK N   1      25.712  28.532  -3.913  0.00  0.00     0.002 A 
HETATM    3  C   UNK N   1      31.422  23.457  -3.835  0.00  0.00     0.002 A 
HETATM    4  C   UNK N   1      26.734  29.454  -4.100  0.00  0.00     0.002 A 
HETATM    5  C   UNK N   1      29.026  23.317  -3.649  0.00  0.00     0.031 A 
HETATM    6  C   UNK N   1      26.012  27.175  -3.830  0.00  0.00     0.031 A 
HETATM    7  C   UNK N   1      31.318  24.833  -4.022  0.00  0.00     0.021 A 
HETATM    8  C   UNK N   1      28.051  29.012  -4.203  0.00  0.00     0.021 A 
HETATM    9  C   UNK N   1      28.897  24.711  -3.837  0.00  0.00     0.052 A 
HETATM   10  C   UNK N   1      27.338  26.702  -3.923  0.00  0.00     0.052 A 
HETATM   11  C   UNK N   1      30.071  25.472  -4.021  0.00  0.00     0.032 A 
HETATM   12  C   UNK N   1      28.367  27.650  -4.114  0.00  0.00     0.032 A 
HETATM   13  N   UNK N   1      27.584  25.288  -3.834  0.00  0.00    -0.345 N 
HETATM   14  S   UNK N   1      30.093  27.235  -4.297  0.00  0.00    -0.086 SA
ENDROOT
BRANCH  13  15
HETATM   15  C   UNK N   1      26.451  24.376  -3.822  0.00  0.00     0.131 C 
BRANCH  15  16
HETATM   16  C   UNK N   1      25.625  24.450  -5.090  0.00  0.00     0.050 C 
BRANCH  16  17
HETATM   17  C   UNK N   1      26.238  23.468  -6.076  0.00  0.00     0.274 C 
BRANCH  17  18
HETATM   18  N   UNK N   1      26.443  24.088  -7.377  0.00  0.00     0.091 N 
HETATM   19  C   UNK N   1      26.016  25.479  -7.261  0.00  0.00     0.302 C 
HETATM   20  C   UNK N   1      26.186  26.178  -8.611  0.00  0.00     0.302 C 
HETATM   21  N   UNK N   1      25.386  25.504  -9.634  0.00  0.00     0.087 N 
HETATM   22  C   UNK N   1      25.719  26.116 -10.907  0.00  0.00     0.310 C 
HETATM   23  C   UNK N   1      25.776  24.098  -9.721  0.00  0.00     0.302 C 
HETATM   24  C   UNK N   1      25.584  23.430  -8.364  0.00  0.00     0.302 C 
ENDBRANCH  17  18
ENDBRANCH  16  17
ENDBRANCH  15  16
ENDBRANCH  13  15
TORSDOF 4
ENDMDL
MODEL 9
REMARK VINA RESULT:      -5.9      4.037      8.028
REMARK  4 active torsions:
REMARK  status: ('A' for Active; 'I' for Inactive)
REMARK    1  A    between atoms: C_11  and  C_6 
REMARK    2  A    between atoms: C_12  and  C_6 
REMARK    3  A    between atoms: N_22  and  C_11 
REMARK    4  A    between atoms: N_23  and  C_12 
ROOT
HETATM    1  C   UNK N   1      28.170  18.321   9.003  0.00  0.00     0.002 A 
HETATM    2  C   UNK N   1      31.908  16.685   2.817  0.00  0.00     0.002 A 
HETATM    3  C   UNK N   1      29.301  18.313   9.811  0.00  0.00     0.002 A 
HETATM    4  C   UNK N   1      33.143  16.639   3.451  0.00  0.00     0.002 A 
HETATM    5  C   UNK N   1      28.285  18.017   7.649  0.00  0.00     0.031 A 
HETATM    6  C   UNK N   1      30.757  16.930   3.562  0.00  0.00     0.031 A 
HETATM    7  C   UNK N   1      30.542  18.004   9.260  0.00  0.00     0.021 A 
HETATM    8  C   UNK N   1      33.220  16.841   4.827  0.00  0.00     0.021 A 
HETATM    9  C   UNK N   1      29.534  17.701   7.069  0.00  0.00     0.052 A 
HETATM   10  C   UNK N   1      30.808  17.146   4.955  0.00  0.00     0.052 A 
HETATM   11  C   UNK N   1      30.675  17.702   7.898  0.00  0.00     0.032 A 
HETATM   12  C   UNK N   1      32.070  17.097   5.587  0.00  0.00     0.032 A 
HETATM   13  N   UNK N   1      29.585  17.391   5.669  0.00  0.00    -0.345 N 
HETATM   14  S   UNK N   1      32.322  17.302   7.341  0.00  0.00    -0.086 SA
ENDROOT
BRANCH  13  15
HETATM   15  C   UNK N   1      28.318  17.242   4.970  0.00  0.00     0.131 C 
BRANCH  15  16
HETATM   16  C   UNK N   1      27.622  15.935   5.290  0.00  0.00     0.050 C 
BRANCH  16  17
HETATM   17  C   UNK N   1      26.133  16.166   5.095  0.00  0.00     0.274 C 
BRANCH  17  18
HETATM   18  N   UNK N   1      25.368  15.653   6.224  0.00  0.00     0.091 N 
HETATM   19  C   UNK N   1      25.953  14.364   6.586  0.00  0.00     0.302 C 
HETATM   20  C   UNK N   1      25.172  13.762   7.755  0.00  0.00     0.302 C 
HETATM   21  N   UNK N   1      23.769  13.576   7.384  0.00  0.00     0.087 N 
HETATM   22  C   UNK N   1      23.064  13.156   8.581  0.00  0.00     0.310 C 
HETATM   23  C   UNK N   1      23.192  14.855   6.974  0.00  0.00     0.302 C 
HETATM   24  C   UNK N   1      23.986  15.421   5.802  0.00  0.00     0.302 C 
ENDBRANCH  17  18
ENDBRANCH  16  17
ENDBRANCH  15  16
ENDBRANCH  13  15
TORSDOF 4
ENDMDL
