MODEL 1
REMARK VINA RESULT:      -0.8      0.000      0.000
REMARK  1 active torsions:
REMARK  status: ('A' for Active; 'I' for Inactive)
REMARK    1  A    between atoms: I_1  and  I_1 
ROOT
HETATM    1  I   UNK N   1      22.676  12.187  10.738  0.00  0.00     0.000 I 
ENDROOT
TORSDOF 1
ENDMDL
MODEL 2
REMARK VINA RESULT:      -0.8     13.414     13.414
REMARK  1 active torsions:
REMARK  status: ('A' for Active; 'I' for Inactive)
REMARK    1  A    between atoms: I_1  and  I_1 
ROOT
HETATM    1  I   UNK N   1      31.006   7.711  20.252  0.00  0.00     0.000 I 
ENDROOT
TORSDOF 1
ENDMDL
MODEL 3
REMARK VINA RESULT:      -0.8     10.922     10.922
REMARK  1 active torsions:
REMARK  status: ('A' for Active; 'I' for Inactive)
REMARK    1  A    between atoms: I_1  and  I_1 
ROOT
HETATM    1  I   UNK N   1      27.116  21.071   6.194  0.00  0.00     0.000 I 
ENDROOT
TORSDOF 1
ENDMDL
MODEL 4
REMARK VINA RESULT:      -0.8     22.198     22.198
REMARK  1 active torsions:
REMARK  status: ('A' for Active; 'I' for Inactive)
REMARK    1  A    between atoms: I_1  and  I_1 
ROOT
HETATM    1  I   UNK N   1      25.316  26.922  -5.653  0.00  0.00     0.000 I 
ENDROOT
TORSDOF 1
ENDMDL
MODEL 5
REMARK VINA RESULT:      -0.8     12.124     12.124
REMARK  1 active torsions:
REMARK  status: ('A' for Active; 'I' for Inactive)
REMARK    1  A    between atoms: I_1  and  I_1 
ROOT
HETATM    1  I   UNK N   1      34.098  10.839  14.574  0.00  0.00     0.000 I 
ENDROOT
TORSDOF 1
ENDMDL
MODEL 6
REMARK VINA RESULT:      -0.7      1.794      1.794
REMARK  1 active torsions:
REMARK  status: ('A' for Active; 'I' for Inactive)
REMARK    1  A    between atoms: I_1  and  I_1 
ROOT
HETATM    1  I   UNK N   1      21.522  13.198   9.808  0.00  0.00     0.000 I 
ENDROOT
TORSDOF 1
ENDMDL
MODEL 7
REMARK VINA RESULT:      -0.7     13.814     13.814
REMARK  1 active torsions:
REMARK  status: ('A' for Active; 'I' for Inactive)
REMARK    1  A    between atoms: I_1  and  I_1 
ROOT
HETATM    1  I   UNK N   1      35.209  12.841  16.511  0.00  0.00     0.000 I 
ENDROOT
TORSDOF 1
ENDMDL
MODEL 8
REMARK VINA RESULT:      -0.7     18.891     18.891
REMARK  1 active torsions:
REMARK  status: ('A' for Active; 'I' for Inactive)
REMARK    1  A    between atoms: I_1  and  I_1 
ROOT
HETATM    1  I   UNK N   1      30.375  22.889  -2.792  0.00  0.00     0.000 I 
ENDROOT
TORSDOF 1
ENDMDL
MODEL 9
REMARK VINA RESULT:      -0.7      2.818      2.818
REMARK  1 active torsions:
REMARK  status: ('A' for Active; 'I' for Inactive)
REMARK    1  A    between atoms: I_1  and  I_1 
ROOT
HETATM    1  I   UNK N   1      21.056  14.050   9.378  0.00  0.00     0.000 I 
ENDROOT
TORSDOF 1
ENDMDL
