MODEL 1
REMARK VINA RESULT:      -7.1      0.000      0.000
REMARK  8 active torsions:
REMARK  status: ('A' for Active; 'I' for Inactive)
REMARK    1  A    between atoms: C_2  and  C_3 
REMARK    2  A    between atoms: C_2  and  N_21 
REMARK    3  A    between atoms: C_6  and  C_10 
REMARK    4  A    between atoms: C_15  and  C_16 
REMARK    5  A    between atoms: C_16  and  O_18 
REMARK       I    between atoms: N_21  and  C_22 
REMARK    6  A    between atoms: C_22  and  C_24 
REMARK    7  A    between atoms: C_24  and  N_27 
REMARK       I    between atoms: N_27  and  C_28 
REMARK    8  A    between atoms: C_28  and  C_30 
ROOT
HETATM    1  C   UNK N   1      35.101  10.662  11.844  0.00  0.00     0.003 A 
HETATM    2  C   UNK N   1      33.872  10.500  12.508  0.00  0.00     0.013 A 
HETATM    3  C   UNK N   1      33.842  10.418  13.912  0.00  0.00     0.013 A 
HETATM    4  C   UNK N   1      35.032  10.557  14.656  0.00  0.00    -0.022 A 
HETATM    5  C   UNK N   1      36.237  10.675  13.964  0.00  0.00     0.055 A 
HETATM    6  C   UNK N   1      36.274  10.725  12.584  0.00  0.00     0.125 A 
HETATM    7  F   UNK N   1      37.461  10.847  11.963  0.00  0.00    -0.205 F 
ENDROOT
BRANCH   1   8
HETATM    8  C   UNK N   1      35.219  10.782  10.359  0.00  0.00     0.116 C 
HETATM    9  C   UNK N   1      35.160   9.436   9.661  0.00  0.00     0.037 C 
BRANCH   8  10
HETATM   10  N   UNK N   1      34.225  11.674   9.823  0.00  0.00    -0.351 N 
HETATM   11  C   UNK N   1      34.526  12.795   9.112  0.00  0.00     0.246 C 
HETATM   12  O   UNK N   1      33.608  13.423   8.606  0.00  0.00    -0.271 OA
HETATM   13  H   UNK N   1      33.276  11.463   9.979  0.00  0.00     0.163 HD
BRANCH  11  14
HETATM   14  C   UNK N   1      35.947  13.322   8.931  0.00  0.00     0.114 A 
HETATM   15  C   UNK N   1      36.147  13.342   7.414  0.00  0.00     0.044 A 
HETATM   16  C   UNK N   1      37.077  12.540   8.253  0.00  0.00     0.044 A 
BRANCH  14  17
HETATM   17  N   UNK N   1      36.103  14.709   9.347  0.00  0.00    -0.335 N 
HETATM   18  C   UNK N   1      36.056  15.333  10.562  0.00  0.00     0.326 C 
HETATM   19  O   UNK N   1      36.062  16.554  10.570  0.00  0.00    -0.263 OA
HETATM   20  H   UNK N   1      36.277  15.324   8.597  0.00  0.00     0.164 HD
BRANCH  18  21
HETATM   21  C   UNK N   1      36.018  14.646  11.909  0.00  0.00     0.472 C 
HETATM   22  F   UNK N   1      36.164  15.593  12.906  0.00  0.00    -0.162 F 
HETATM   23  F   UNK N   1      37.084  13.767  11.984  0.00  0.00    -0.162 F 
HETATM   24  F   UNK N   1      34.881  13.917  12.139  0.00  0.00    -0.162 F 
ENDBRANCH  18  21
ENDBRANCH  14  17
ENDBRANCH  11  14
ENDBRANCH   8  10
ENDBRANCH   1   8
BRANCH   4  25
HETATM   25  C   UNK N   1      35.050  10.456  16.146  0.00  0.00    -0.008 A 
HETATM   26  C   UNK N   1      35.094   9.166  16.692  0.00  0.00     0.013 A 
HETATM   27  C   UNK N   1      35.252   8.966  18.057  0.00  0.00     0.003 A 
HETATM   28  C   UNK N   1      35.374  10.054  18.910  0.00  0.00     0.025 A 
HETATM   29  C   UNK N   1      35.311  11.358  18.420  0.00  0.00     0.051 A 
HETATM   30  C   UNK N   1      35.129  11.596  17.029  0.00  0.00     0.072 A 
HETATM   31 Cl   UNK N   1      35.395  12.646  19.620  0.00  0.00    -0.083 Cl
BRANCH  30  32
HETATM   32  C   UNK N   1      34.961  13.010  16.530  0.00  0.00     0.295 C 
HETATM   33  O   UNK N   1      33.863  13.405  16.170  0.00  0.00    -0.259 OA
BRANCH  32  34
HETATM   34  O   UNK N   1      36.005  13.876  16.546  0.00  0.00    -0.322 OA
HETATM   35  C   UNK N   1      36.914  13.952  15.516  0.00  0.00     0.213 C 
ENDBRANCH  32  34
ENDBRANCH  30  32
ENDBRANCH   4  25
TORSDOF 8
ENDMDL
MODEL 2
REMARK VINA RESULT:      -7.1     20.659     23.916
REMARK  8 active torsions:
REMARK  status: ('A' for Active; 'I' for Inactive)
REMARK    1  A    between atoms: C_2  and  C_3 
REMARK    2  A    between atoms: C_2  and  N_21 
REMARK    3  A    between atoms: C_6  and  C_10 
REMARK    4  A    between atoms: C_15  and  C_16 
REMARK    5  A    between atoms: C_16  and  O_18 
REMARK       I    between atoms: N_21  and  C_22 
REMARK    6  A    between atoms: C_22  and  C_24 
REMARK    7  A    between atoms: C_24  and  N_27 
REMARK       I    between atoms: N_27  and  C_28 
REMARK    8  A    between atoms: C_28  and  C_30 
ROOT
HETATM    1  C   UNK N   1      26.497  25.925  -5.505  0.00  0.00     0.003 A 
HETATM    2  C   UNK N   1      26.202  24.771  -4.757  0.00  0.00     0.013 A 
HETATM    3  C   UNK N   1      26.848  23.559  -5.060  0.00  0.00     0.013 A 
HETATM    4  C   UNK N   1      27.831  23.512  -6.071  0.00  0.00    -0.022 A 
HETATM    5  C   UNK N   1      28.069  24.664  -6.819  0.00  0.00     0.055 A 
HETATM    6  C   UNK N   1      27.413  25.850  -6.545  0.00  0.00     0.125 A 
HETATM    7  F   UNK N   1      27.683  26.936  -7.291  0.00  0.00    -0.205 F 
ENDROOT
BRANCH   1   8
HETATM    8  C   UNK N   1      25.875  27.257  -5.233  0.00  0.00     0.116 C 
HETATM    9  C   UNK N   1      24.422  27.318  -5.668  0.00  0.00     0.037 C 
BRANCH   8  10
HETATM   10  N   UNK N   1      26.005  27.625  -3.848  0.00  0.00    -0.351 N 
HETATM   11  C   UNK N   1      26.952  28.486  -3.385  0.00  0.00     0.246 C 
HETATM   12  O   UNK N   1      26.906  28.820  -2.210  0.00  0.00    -0.271 OA
HETATM   13  H   UNK N   1      25.375  27.233  -3.201  0.00  0.00     0.163 HD
BRANCH  11  14
HETATM   14  C   UNK N   1      28.080  29.041  -4.249  0.00  0.00     0.114 A 
HETATM   15  C   UNK N   1      27.735  30.524  -4.408  0.00  0.00     0.044 A 
HETATM   16  C   UNK N   1      27.878  29.682  -5.626  0.00  0.00     0.044 A 
BRANCH  14  17
HETATM   17  N   UNK N   1      29.375  29.030  -3.580  0.00  0.00    -0.335 N 
HETATM   18  C   UNK N   1      30.275  28.040  -3.301  0.00  0.00     0.326 C 
HETATM   19  O   UNK N   1      31.212  28.319  -2.569  0.00  0.00    -0.263 OA
HETATM   20  H   UNK N   1      29.659  29.919  -3.265  0.00  0.00     0.164 HD
BRANCH  18  21
HETATM   21  C   UNK N   1      30.228  26.625  -3.833  0.00  0.00     0.472 C 
HETATM   22  F   UNK N   1      31.282  25.904  -3.301  0.00  0.00    -0.162 F 
HETATM   23  F   UNK N   1      30.381  26.667  -5.208  0.00  0.00    -0.162 F 
HETATM   24  F   UNK N   1      29.055  25.965  -3.581  0.00  0.00    -0.162 F 
ENDBRANCH  18  21
ENDBRANCH  14  17
ENDBRANCH  11  14
ENDBRANCH   8  10
ENDBRANCH   1   8
BRANCH   4  25
HETATM   25  C   UNK N   1      28.526  22.243  -6.440  0.00  0.00    -0.008 A 
HETATM   26  C   UNK N   1      28.000  21.525  -7.522  0.00  0.00     0.013 A 
HETATM   27  C   UNK N   1      28.650  20.409  -8.031  0.00  0.00     0.003 A 
HETATM   28  C   UNK N   1      29.848  19.985  -7.471  0.00  0.00     0.025 A 
HETATM   29  C   UNK N   1      30.400  20.649  -6.376  0.00  0.00     0.051 A 
HETATM   30  C   UNK N   1      29.746  21.784  -5.818  0.00  0.00     0.072 A 
HETATM   31 Cl   UNK N   1      31.877  19.958  -5.709  0.00  0.00    -0.083 Cl
BRANCH  30  32
HETATM   32  C   UNK N   1      30.303  22.428  -4.573  0.00  0.00     0.295 C 
HETATM   33  O   UNK N   1      31.172  23.281  -4.661  0.00  0.00    -0.259 OA
BRANCH  32  34
HETATM   34  O   UNK N   1      29.794  22.124  -3.352  0.00  0.00    -0.322 OA
HETATM   35  C   UNK N   1      29.838  23.006  -2.297  0.00  0.00     0.213 C 
ENDBRANCH  32  34
ENDBRANCH  30  32
ENDBRANCH   4  25
TORSDOF 8
ENDMDL
MODEL 3
REMARK VINA RESULT:      -6.9      1.827      2.556
REMARK  8 active torsions:
REMARK  status: ('A' for Active; 'I' for Inactive)
REMARK    1  A    between atoms: C_2  and  C_3 
REMARK    2  A    between atoms: C_2  and  N_21 
REMARK    3  A    between atoms: C_6  and  C_10 
REMARK    4  A    between atoms: C_15  and  C_16 
REMARK    5  A    between atoms: C_16  and  O_18 
REMARK       I    between atoms: N_21  and  C_22 
REMARK    6  A    between atoms: C_22  and  C_24 
REMARK    7  A    between atoms: C_24  and  N_27 
REMARK       I    between atoms: N_27  and  C_28 
REMARK    8  A    between atoms: C_28  and  C_30 
ROOT
HETATM    1  C   UNK N   1      35.298  11.573  12.498  0.00  0.00     0.003 A 
HETATM    2  C   UNK N   1      34.194  11.166  13.269  0.00  0.00     0.013 A 
HETATM    3  C   UNK N   1      34.221  11.326  14.667  0.00  0.00     0.013 A 
HETATM    4  C   UNK N   1      35.326  11.943  15.289  0.00  0.00    -0.022 A 
HETATM    5  C   UNK N   1      36.420  12.296  14.500  0.00  0.00     0.055 A 
HETATM    6  C   UNK N   1      36.410  12.113  13.130  0.00  0.00     0.125 A 
HETATM    7  F   UNK N   1      37.488  12.477  12.412  0.00  0.00    -0.205 F 
ENDROOT
BRANCH   1   8
HETATM    8  C   UNK N   1      35.342  11.463  11.009  0.00  0.00     0.116 C 
HETATM    9  C   UNK N   1      35.934  10.145  10.542  0.00  0.00     0.037 C 
BRANCH   8  10
HETATM   10  N   UNK N   1      34.041  11.667  10.429  0.00  0.00    -0.351 N 
HETATM   11  C   UNK N   1      33.824  12.417   9.314  0.00  0.00     0.246 C 
HETATM   12  O   UNK N   1      32.699  12.436   8.838  0.00  0.00    -0.271 OA
HETATM   13  H   UNK N   1      33.266  11.241  10.861  0.00  0.00     0.163 HD
BRANCH  11  14
HETATM   14  C   UNK N   1      34.906  13.255   8.640  0.00  0.00     0.114 A 
HETATM   15  C   UNK N   1      34.809  12.871   7.161  0.00  0.00     0.044 A 
HETATM   16  C   UNK N   1      36.099  12.671   7.874  0.00  0.00     0.044 A 
BRANCH  14  17
HETATM   17  N   UNK N   1      34.631  14.685   8.672  0.00  0.00    -0.335 N 
HETATM   18  C   UNK N   1      34.664  15.622   9.667  0.00  0.00     0.326 C 
HETATM   19  O   UNK N   1      34.213  16.728   9.415  0.00  0.00    -0.263 OA
HETATM   20  H   UNK N   1      34.366  15.052   7.797  0.00  0.00     0.164 HD
BRANCH  18  21
HETATM   21  C   UNK N   1      35.229  15.419  11.056  0.00  0.00     0.472 C 
HETATM   22  F   UNK N   1      34.367  14.620  11.784  0.00  0.00    -0.162 F 
HETATM   23  F   UNK N   1      35.312  16.652  11.680  0.00  0.00    -0.162 F 
HETATM   24  F   UNK N   1      36.484  14.872  11.081  0.00  0.00    -0.162 F 
ENDBRANCH  18  21
ENDBRANCH  14  17
ENDBRANCH  11  14
ENDBRANCH   8  10
ENDBRANCH   1   8
BRANCH   4  25
HETATM   25  C   UNK N   1      35.406  12.113  16.770  0.00  0.00    -0.008 A 
HETATM   26  C   UNK N   1      35.228  13.410  17.270  0.00  0.00     0.013 A 
HETATM   27  C   UNK N   1      35.147  13.653  18.634  0.00  0.00     0.003 A 
HETATM   28  C   UNK N   1      35.238  12.600  19.535  0.00  0.00     0.025 A 
HETATM   29  C   UNK N   1      35.443  11.294  19.091  0.00  0.00     0.051 A 
HETATM   30  C   UNK N   1      35.551  11.016  17.699  0.00  0.00     0.072 A 
HETATM   31 Cl   UNK N   1      35.626  10.066  20.341  0.00  0.00    -0.083 Cl
BRANCH  30  32
HETATM   32  C   UNK N   1      35.873   9.615  17.241  0.00  0.00     0.295 C 
HETATM   33  O   UNK N   1      34.971   8.841  16.959  0.00  0.00    -0.259 OA
BRANCH  32  34
HETATM   34  O   UNK N   1      37.161   9.225  17.065  0.00  0.00    -0.322 OA
HETATM   35  C   UNK N   1      37.709   8.168  17.754  0.00  0.00     0.213 C 
ENDBRANCH  32  34
ENDBRANCH  30  32
ENDBRANCH   4  25
TORSDOF 8
ENDMDL
MODEL 4
REMARK VINA RESULT:      -6.5      8.464     12.196
REMARK  8 active torsions:
REMARK  status: ('A' for Active; 'I' for Inactive)
REMARK    1  A    between atoms: C_2  and  C_3 
REMARK    2  A    between atoms: C_2  and  N_21 
REMARK    3  A    between atoms: C_6  and  C_10 
REMARK    4  A    between atoms: C_15  and  C_16 
REMARK    5  A    between atoms: C_16  and  O_18 
REMARK       I    between atoms: N_21  and  C_22 
REMARK    6  A    between atoms: C_22  and  C_24 
REMARK    7  A    between atoms: C_24  and  N_27 
REMARK       I    between atoms: N_27  and  C_28 
REMARK    8  A    between atoms: C_28  and  C_30 
ROOT
HETATM    1  C   UNK N   1      31.657  15.375   4.086  0.00  0.00     0.003 A 
HETATM    2  C   UNK N   1      31.252  16.306   3.112  0.00  0.00     0.013 A 
HETATM    3  C   UNK N   1      29.897  16.381   2.740  0.00  0.00     0.013 A 
HETATM    4  C   UNK N   1      28.939  15.569   3.381  0.00  0.00    -0.022 A 
HETATM    5  C   UNK N   1      29.381  14.630   4.312  0.00  0.00     0.055 A 
HETATM    6  C   UNK N   1      30.715  14.531   4.658  0.00  0.00     0.125 A 
HETATM    7  F   UNK N   1      31.091  13.613   5.567  0.00  0.00    -0.205 F 
ENDROOT
BRANCH   1   8
HETATM    8  C   UNK N   1      33.070  15.247   4.557  0.00  0.00     0.116 C 
HETATM    9  C   UNK N   1      33.953  14.530   3.552  0.00  0.00     0.037 C 
BRANCH   8  10
HETATM   10  N   UNK N   1      33.629  16.528   4.899  0.00  0.00    -0.351 N 
HETATM   11  C   UNK N   1      33.729  16.988   6.176  0.00  0.00     0.246 C 
HETATM   12  O   UNK N   1      34.321  18.040   6.368  0.00  0.00    -0.271 OA
HETATM   13  H   UNK N   1      33.956  17.103   4.170  0.00  0.00     0.163 HD
BRANCH  11  14
HETATM   14  C   UNK N   1      33.123  16.271   7.379  0.00  0.00     0.114 A 
HETATM   15  C   UNK N   1      34.337  15.802   8.184  0.00  0.00     0.044 A 
HETATM   16  C   UNK N   1      33.354  14.792   7.709  0.00  0.00     0.044 A 
BRANCH  14  17
HETATM   17  N   UNK N   1      32.402  17.164   8.277  0.00  0.00    -0.335 N 
HETATM   18  C   UNK N   1      31.166  17.745   8.224  0.00  0.00     0.326 C 
HETATM   19  O   UNK N   1      30.904  18.590   9.065  0.00  0.00    -0.263 OA
HETATM   20  H   UNK N   1      32.910  17.395   9.088  0.00  0.00     0.164 HD
BRANCH  18  21
HETATM   21  C   UNK N   1      30.077  17.422   7.225  0.00  0.00     0.472 C 
HETATM   22  F   UNK N   1      29.825  16.062   7.252  0.00  0.00    -0.162 F 
HETATM   23  F   UNK N   1      30.530  17.755   5.960  0.00  0.00    -0.162 F 
HETATM   24  F   UNK N   1      28.907  18.104   7.423  0.00  0.00    -0.162 F 
ENDBRANCH  18  21
ENDBRANCH  14  17
ENDBRANCH  11  14
ENDBRANCH   8  10
ENDBRANCH   1   8
BRANCH   4  25
HETATM   25  C   UNK N   1      27.495  15.601   3.002  0.00  0.00    -0.008 A 
HETATM   26  C   UNK N   1      27.056  14.627   2.095  0.00  0.00     0.013 A 
HETATM   27  C   UNK N   1      25.710  14.484   1.785  0.00  0.00     0.003 A 
HETATM   28  C   UNK N   1      24.768  15.312   2.380  0.00  0.00     0.025 A 
HETATM   29  C   UNK N   1      25.155  16.314   3.269  0.00  0.00     0.051 A 
HETATM   30  C   UNK N   1      26.529  16.499   3.591  0.00  0.00     0.072 A 
HETATM   31 Cl   UNK N   1      23.868  17.347   3.886  0.00  0.00    -0.083 Cl
BRANCH  30  32
HETATM   32  C   UNK N   1      26.939  17.651   4.474  0.00  0.00     0.295 C 
HETATM   33  O   UNK N   1      26.741  17.599   5.678  0.00  0.00    -0.259 OA
BRANCH  32  34
HETATM   34  O   UNK N   1      27.597  18.718   3.956  0.00  0.00    -0.322 OA
HETATM   35  C   UNK N   1      27.892  19.834   4.704  0.00  0.00     0.213 C 
ENDBRANCH  32  34
ENDBRANCH  30  32
ENDBRANCH   4  25
TORSDOF 8
ENDMDL
MODEL 5
REMARK VINA RESULT:      -6.5      4.393      8.757
REMARK  8 active torsions:
REMARK  status: ('A' for Active; 'I' for Inactive)
REMARK    1  A    between atoms: C_2  and  C_3 
REMARK    2  A    between atoms: C_2  and  N_21 
REMARK    3  A    between atoms: C_6  and  C_10 
REMARK    4  A    between atoms: C_15  and  C_16 
REMARK    5  A    between atoms: C_16  and  O_18 
REMARK       I    between atoms: N_21  and  C_22 
REMARK    6  A    between atoms: C_22  and  C_24 
REMARK    7  A    between atoms: C_24  and  N_27 
REMARK       I    between atoms: N_27  and  C_28 
REMARK    8  A    between atoms: C_28  and  C_30 
ROOT
HETATM    1  C   UNK N   1      35.181  14.273  10.055  0.00  0.00     0.003 A 
HETATM    2  C   UNK N   1      33.851  14.242   9.598  0.00  0.00     0.013 A 
HETATM    3  C   UNK N   1      33.577  14.433   8.231  0.00  0.00     0.013 A 
HETATM    4  C   UNK N   1      34.634  14.597   7.312  0.00  0.00    -0.022 A 
HETATM    5  C   UNK N   1      35.937  14.664   7.804  0.00  0.00     0.055 A 
HETATM    6  C   UNK N   1      36.208  14.508   9.150  0.00  0.00     0.125 A 
HETATM    7  F   UNK N   1      37.483  14.574   9.575  0.00  0.00    -0.205 F 
ENDROOT
BRANCH   1   8
HETATM    8  C   UNK N   1      35.561  14.055  11.483  0.00  0.00     0.116 C 
HETATM    9  C   UNK N   1      35.615  15.351  12.273  0.00  0.00     0.037 C 
BRANCH   8  10
HETATM   10  N   UNK N   1      34.684  13.110  12.122  0.00  0.00    -0.351 N 
HETATM   11  C   UNK N   1      35.095  12.229  13.075  0.00  0.00     0.246 C 
HETATM   12  O   UNK N   1      34.250  11.546  13.635  0.00  0.00    -0.271 OA
HETATM   13  H   UNK N   1      33.736  13.099  11.856  0.00  0.00     0.163 HD
BRANCH  11  14
HETATM   14  C   UNK N   1      36.556  12.034  13.467  0.00  0.00     0.114 A 
HETATM   15  C   UNK N   1      37.301  12.004  12.131  0.00  0.00     0.044 A 
HETATM   16  C   UNK N   1      37.411  10.834  13.042  0.00  0.00     0.044 A 
BRANCH  14  17
HETATM   17  N   UNK N   1      37.117  13.173  14.182  0.00  0.00    -0.335 N 
HETATM   18  C   UNK N   1      36.781  13.806  15.346  0.00  0.00     0.326 C 
HETATM   19  O   UNK N   1      37.352  14.853  15.604  0.00  0.00    -0.263 OA
HETATM   20  H   UNK N   1      37.901  13.567  13.734  0.00  0.00     0.164 HD
BRANCH  18  21
HETATM   21  C   UNK N   1      35.771  13.315  16.360  0.00  0.00     0.472 C 
HETATM   22  F   UNK N   1      35.911  14.042  17.528  0.00  0.00    -0.162 F 
HETATM   23  F   UNK N   1      36.039  11.986  16.639  0.00  0.00    -0.162 F 
HETATM   24  F   UNK N   1      34.469  13.381  15.939  0.00  0.00    -0.162 F 
ENDBRANCH  18  21
ENDBRANCH  14  17
ENDBRANCH  11  14
ENDBRANCH   8  10
ENDBRANCH   1   8
BRANCH   4  25
HETATM   25  C   UNK N   1      34.388  14.824   5.857  0.00  0.00    -0.008 A 
HETATM   26  C   UNK N   1      34.788  13.806   4.981  0.00  0.00     0.013 A 
HETATM   27  C   UNK N   1      34.482  13.857   3.627  0.00  0.00     0.003 A 
HETATM   28  C   UNK N   1      33.762  14.929   3.117  0.00  0.00     0.025 A 
HETATM   29  C   UNK N   1      33.363  15.981   3.942  0.00  0.00     0.051 A 
HETATM   30  C   UNK N   1      33.680  15.967   5.329  0.00  0.00     0.072 A 
HETATM   31 Cl   UNK N   1      32.531  17.318   3.151  0.00  0.00    -0.083 Cl
BRANCH  30  32
HETATM   32  C   UNK N   1      33.331  17.159   6.185  0.00  0.00     0.295 C 
HETATM   33  O   UNK N   1      32.174  17.349   6.527  0.00  0.00    -0.259 OA
BRANCH  32  34
HETATM   34  O   UNK N   1      34.302  17.986   6.647  0.00  0.00    -0.322 OA
HETATM   35  C   UNK N   1      34.496  18.214   7.990  0.00  0.00     0.213 C 
ENDBRANCH  32  34
ENDBRANCH  30  32
ENDBRANCH   4  25
TORSDOF 8
ENDMDL
MODEL 6
REMARK VINA RESULT:      -6.4      2.480      3.896
REMARK  8 active torsions:
REMARK  status: ('A' for Active; 'I' for Inactive)
REMARK    1  A    between atoms: C_2  and  C_3 
REMARK    2  A    between atoms: C_2  and  N_21 
REMARK    3  A    between atoms: C_6  and  C_10 
REMARK    4  A    between atoms: C_15  and  C_16 
REMARK    5  A    between atoms: C_16  and  O_18 
REMARK       I    between atoms: N_21  and  C_22 
REMARK    6  A    between atoms: C_22  and  C_24 
REMARK    7  A    between atoms: C_24  and  N_27 
REMARK       I    between atoms: N_27  and  C_28 
REMARK    8  A    between atoms: C_28  and  C_30 
ROOT
HETATM    1  C   UNK N   1      35.711  13.744  12.847  0.00  0.00     0.003 A 
HETATM    2  C   UNK N   1      36.466  14.427  13.818  0.00  0.00     0.013 A 
HETATM    3  C   UNK N   1      36.445  13.988  15.154  0.00  0.00     0.013 A 
HETATM    4  C   UNK N   1      35.717  12.834  15.511  0.00  0.00    -0.022 A 
HETATM    5  C   UNK N   1      34.947  12.207  14.532  0.00  0.00     0.055 A 
HETATM    6  C   UNK N   1      34.940  12.653  13.224  0.00  0.00     0.125 A 
HETATM    7  F   UNK N   1      34.186  12.008  12.315  0.00  0.00    -0.205 F 
ENDROOT
BRANCH   1   8
HETATM    8  C   UNK N   1      35.696  14.128  11.403  0.00  0.00     0.116 C 
HETATM    9  C   UNK N   1      34.599  15.126  11.079  0.00  0.00     0.037 C 
BRANCH   8  10
HETATM   10  N   UNK N   1      36.977  14.629  10.979  0.00  0.00    -0.351 N 
HETATM   11  C   UNK N   1      37.615  14.204   9.855  0.00  0.00     0.246 C 
HETATM   12  O   UNK N   1      38.645  14.772   9.524  0.00  0.00    -0.271 OA
HETATM   13  H   UNK N   1      37.415  15.316  11.532  0.00  0.00     0.163 HD
BRANCH  11  14
HETATM   14  C   UNK N   1      37.126  13.041   8.997  0.00  0.00     0.114 A 
HETATM   15  C   UNK N   1      37.126  13.601   7.573  0.00  0.00     0.044 A 
HETATM   16  C   UNK N   1      35.856  13.075   8.140  0.00  0.00     0.044 A 
BRANCH  14  17
HETATM   17  N   UNK N   1      38.060  11.923   8.957  0.00  0.00    -0.335 N 
HETATM   18  C   UNK N   1      38.414  10.967   9.868  0.00  0.00     0.326 C 
HETATM   19  O   UNK N   1      39.362  10.250   9.593  0.00  0.00    -0.263 OA
HETATM   20  H   UNK N   1      38.532  11.839   8.097  0.00  0.00     0.164 HD
BRANCH  18  21
HETATM   21  C   UNK N   1      37.721  10.701  11.187  0.00  0.00     0.472 C 
HETATM   22  F   UNK N   1      36.353  10.692  10.987  0.00  0.00    -0.162 F 
HETATM   23  F   UNK N   1      38.026  11.732  12.058  0.00  0.00    -0.162 F 
HETATM   24  F   UNK N   1      38.098   9.535  11.798  0.00  0.00    -0.162 F 
ENDBRANCH  18  21
ENDBRANCH  14  17
ENDBRANCH  11  14
ENDBRANCH   8  10
ENDBRANCH   1   8
BRANCH   4  25
HETATM   25  C   UNK N   1      35.649  12.346  16.920  0.00  0.00    -0.008 A 
HETATM   26  C   UNK N   1      35.319  13.290  17.902  0.00  0.00     0.013 A 
HETATM   27  C   UNK N   1      35.096  12.912  19.220  0.00  0.00     0.003 A 
HETATM   28  C   UNK N   1      35.194  11.577  19.586  0.00  0.00     0.025 A 
HETATM   29  C   UNK N   1      35.546  10.602  18.653  0.00  0.00     0.051 A 
HETATM   30  C   UNK N   1      35.801  10.961  17.300  0.00  0.00     0.072 A 
HETATM   31 Cl   UNK N   1      35.718   8.960  19.269  0.00  0.00    -0.083 Cl
BRANCH  30  32
HETATM   32  C   UNK N   1      36.279   9.911  16.328  0.00  0.00     0.295 C 
HETATM   33  O   UNK N   1      35.510   9.050  15.930  0.00  0.00    -0.259 OA
BRANCH  32  34
HETATM   34  O   UNK N   1      37.540   9.955  15.828  0.00  0.00    -0.322 OA
HETATM   35  C   UNK N   1      38.154   8.851  15.284  0.00  0.00     0.213 C 
ENDBRANCH  32  34
ENDBRANCH  30  32
ENDBRANCH   4  25
TORSDOF 8
ENDMDL
MODEL 7
REMARK VINA RESULT:      -6.4      7.326     11.164
REMARK  8 active torsions:
REMARK  status: ('A' for Active; 'I' for Inactive)
REMARK    1  A    between atoms: C_2  and  C_3 
REMARK    2  A    between atoms: C_2  and  N_21 
REMARK    3  A    between atoms: C_6  and  C_10 
REMARK    4  A    between atoms: C_15  and  C_16 
REMARK    5  A    between atoms: C_16  and  O_18 
REMARK       I    between atoms: N_21  and  C_22 
REMARK    6  A    between atoms: C_22  and  C_24 
REMARK    7  A    between atoms: C_24  and  N_27 
REMARK       I    between atoms: N_27  and  C_28 
REMARK    8  A    between atoms: C_28  and  C_30 
ROOT
HETATM    1  C   UNK N   1      31.977  17.149   7.502  0.00  0.00     0.003 A 
HETATM    2  C   UNK N   1      30.841  17.526   8.241  0.00  0.00     0.013 A 
HETATM    3  C   UNK N   1      29.635  17.808   7.574  0.00  0.00     0.013 A 
HETATM    4  C   UNK N   1      29.547  17.659   6.174  0.00  0.00    -0.022 A 
HETATM    5  C   UNK N   1      30.703  17.325   5.468  0.00  0.00     0.055 A 
HETATM    6  C   UNK N   1      31.897  17.076   6.118  0.00  0.00     0.125 A 
HETATM    7  F   UNK N   1      32.983  16.750   5.393  0.00  0.00    -0.205 F 
ENDROOT
BRANCH   1   8
HETATM    8  C   UNK N   1      33.288  16.808   8.133  0.00  0.00     0.116 C 
HETATM    9  C   UNK N   1      34.248  17.984   8.147  0.00  0.00     0.037 C 
BRANCH   8  10
HETATM   10  N   UNK N   1      33.111  16.282   9.461  0.00  0.00    -0.351 N 
HETATM   11  C   UNK N   1      33.801  15.214   9.943  0.00  0.00     0.246 C 
HETATM   12  O   UNK N   1      33.659  14.916  11.120  0.00  0.00    -0.271 OA
HETATM   13  H   UNK N   1      32.456  16.720  10.052  0.00  0.00     0.163 HD
BRANCH  11  14
HETATM   14  C   UNK N   1      34.727  14.353   9.089  0.00  0.00     0.114 A 
HETATM   15  C   UNK N   1      35.936  14.095   9.991  0.00  0.00     0.044 A 
HETATM   16  C   UNK N   1      36.146  14.758   8.677  0.00  0.00     0.044 A 
BRANCH  14  17
HETATM   17  N   UNK N   1      34.184  13.030   8.807  0.00  0.00    -0.335 N 
HETATM   18  C   UNK N   1      33.364  12.545   7.826  0.00  0.00     0.326 C 
HETATM   19  O   UNK N   1      32.946  11.405   7.953  0.00  0.00    -0.263 OA
HETATM   20  H   UNK N   1      34.466  12.346   9.456  0.00  0.00     0.164 HD
BRANCH  18  21
HETATM   21  C   UNK N   1      32.939  13.289   6.580  0.00  0.00     0.472 C 
HETATM   22  F   UNK N   1      33.963  14.128   6.180  0.00  0.00    -0.162 F 
HETATM   23  F   UNK N   1      31.836  14.067   6.887  0.00  0.00    -0.162 F 
HETATM   24  F   UNK N   1      32.580  12.481   5.534  0.00  0.00    -0.162 F 
ENDBRANCH  18  21
ENDBRANCH  14  17
ENDBRANCH  11  14
ENDBRANCH   8  10
ENDBRANCH   1   8
BRANCH   4  25
HETATM   25  C   UNK N   1      28.295  17.969   5.423  0.00  0.00    -0.008 A 
HETATM   26  C   UNK N   1      28.219  19.227   4.809  0.00  0.00     0.013 A 
HETATM   27  C   UNK N   1      27.160  19.559   3.975  0.00  0.00     0.003 A 
HETATM   28  C   UNK N   1      26.151  18.638   3.731  0.00  0.00     0.025 A 
HETATM   29  C   UNK N   1      26.166  17.382   4.337  0.00  0.00     0.051 A 
HETATM   30  C   UNK N   1      27.227  17.019   5.213  0.00  0.00     0.072 A 
HETATM   31 Cl   UNK N   1      24.782  16.342   4.008  0.00  0.00    -0.083 Cl
BRANCH  30  32
HETATM   32  C   UNK N   1      27.175  15.698   5.940  0.00  0.00     0.295 C 
HETATM   33  O   UNK N   1      26.475  15.572   6.932  0.00  0.00    -0.259 OA
BRANCH  32  34
HETATM   34  O   UNK N   1      27.841  14.618   5.457  0.00  0.00    -0.322 OA
HETATM   35  C   UNK N   1      28.293  14.554   4.159  0.00  0.00     0.213 C 
ENDBRANCH  32  34
ENDBRANCH  30  32
ENDBRANCH   4  25
TORSDOF 8
ENDMDL
MODEL 8
REMARK VINA RESULT:      -6.4     20.425     23.437
REMARK  8 active torsions:
REMARK  status: ('A' for Active; 'I' for Inactive)
REMARK    1  A    between atoms: C_2  and  C_3 
REMARK    2  A    between atoms: C_2  and  N_21 
REMARK    3  A    between atoms: C_6  and  C_10 
REMARK    4  A    between atoms: C_15  and  C_16 
REMARK    5  A    between atoms: C_16  and  O_18 
REMARK       I    between atoms: N_21  and  C_22 
REMARK    6  A    between atoms: C_22  and  C_24 
REMARK    7  A    between atoms: C_24  and  N_27 
REMARK       I    between atoms: N_27  and  C_28 
REMARK    8  A    between atoms: C_28  and  C_30 
ROOT
HETATM    1  C   UNK N   1      28.534  21.366  -8.850  0.00  0.00     0.003 A 
HETATM    2  C   UNK N   1      28.543  20.097  -8.244  0.00  0.00     0.013 A 
HETATM    3  C   UNK N   1      29.594  19.744  -7.378  0.00  0.00     0.013 A 
HETATM    4  C   UNK N   1      30.606  20.678  -7.073  0.00  0.00    -0.022 A 
HETATM    5  C   UNK N   1      30.588  21.912  -7.723  0.00  0.00     0.055 A 
HETATM    6  C   UNK N   1      29.574  22.251  -8.598  0.00  0.00     0.125 A 
HETATM    7  F   UNK N   1      29.598  23.457  -9.195  0.00  0.00    -0.205 F 
ENDROOT
BRANCH   1   8
HETATM    8  C   UNK N   1      27.444  21.831  -9.761  0.00  0.00     0.116 C 
HETATM    9  C   UNK N   1      27.524  21.190 -11.134  0.00  0.00     0.037 C 
BRANCH   8  10
HETATM   10  N   UNK N   1      26.145  21.618  -9.177  0.00  0.00    -0.351 N 
HETATM   11  C   UNK N   1      25.393  22.614  -8.636  0.00  0.00     0.246 C 
HETATM   12  O   UNK N   1      24.258  22.347  -8.268  0.00  0.00    -0.271 OA
HETATM   13  H   UNK N   1      25.782  20.703  -9.170  0.00  0.00     0.163 HD
BRANCH  11  14
HETATM   14  C   UNK N   1      25.897  24.040  -8.442  0.00  0.00     0.114 A 
HETATM   15  C   UNK N   1      25.083  24.864  -9.443  0.00  0.00     0.044 A 
HETATM   16  C   UNK N   1      26.567  24.875  -9.538  0.00  0.00     0.044 A 
BRANCH  14  17
HETATM   17  N   UNK N   1      25.559  24.598  -7.139  0.00  0.00    -0.335 N 
HETATM   18  C   UNK N   1      26.116  24.478  -5.896  0.00  0.00     0.326 C 
HETATM   19  O   UNK N   1      25.497  24.944  -4.953  0.00  0.00    -0.263 OA
HETATM   20  H   UNK N   1      24.765  25.181  -7.158  0.00  0.00     0.164 HD
BRANCH  18  21
HETATM   21  C   UNK N   1      27.448  23.833  -5.582  0.00  0.00     0.472 C 
HETATM   22  F   UNK N   1      28.452  24.521  -6.240  0.00  0.00    -0.162 F 
HETATM   23  F   UNK N   1      27.429  22.533  -6.058  0.00  0.00    -0.162 F 
HETATM   24  F   UNK N   1      27.743  23.766  -4.247  0.00  0.00    -0.162 F 
ENDBRANCH  18  21
ENDBRANCH  14  17
ENDBRANCH  11  14
ENDBRANCH   8  10
ENDBRANCH   1   8
BRANCH   4  25
HETATM   25  C   UNK N   1      31.752  20.339  -6.178  0.00  0.00    -0.008 A 
HETATM   26  C   UNK N   1      32.773  19.552  -6.727  0.00  0.00     0.013 A 
HETATM   27  C   UNK N   1      33.944  19.296  -6.025  0.00  0.00     0.003 A 
HETATM   28  C   UNK N   1      34.122  19.826  -4.754  0.00  0.00     0.025 A 
HETATM   29  C   UNK N   1      33.125  20.594  -4.152  0.00  0.00     0.051 A 
HETATM   30  C   UNK N   1      31.906  20.856  -4.838  0.00  0.00     0.072 A 
HETATM   31 Cl   UNK N   1      33.445  21.133  -2.505  0.00  0.00    -0.083 Cl
BRANCH  30  32
HETATM   32  C   UNK N   1      30.800  21.601  -4.133  0.00  0.00     0.295 C 
HETATM   33  O   UNK N   1      30.018  20.998  -3.415  0.00  0.00    -0.259 OA
BRANCH  32  34
HETATM   34  O   UNK N   1      30.707  22.951  -4.228  0.00  0.00    -0.322 OA
HETATM   35  C   UNK N   1      30.792  23.773  -3.127  0.00  0.00     0.213 C 
ENDBRANCH  32  34
ENDBRANCH  30  32
ENDBRANCH   4  25
TORSDOF 8
ENDMDL
MODEL 9
REMARK VINA RESULT:      -6.3     22.614     25.236
REMARK  8 active torsions:
REMARK  status: ('A' for Active; 'I' for Inactive)
REMARK    1  A    between atoms: C_2  and  C_3 
REMARK    2  A    between atoms: C_2  and  N_21 
REMARK    3  A    between atoms: C_6  and  C_10 
REMARK    4  A    between atoms: C_15  and  C_16 
REMARK    5  A    between atoms: C_16  and  O_18 
REMARK       I    between atoms: N_21  and  C_22 
REMARK    6  A    between atoms: C_22  and  C_24 
REMARK    7  A    between atoms: C_24  and  N_27 
REMARK       I    between atoms: N_27  and  C_28 
REMARK    8  A    between atoms: C_28  and  C_30 
ROOT
HETATM    1  C   UNK N   1      26.593  26.439  -7.659  0.00  0.00     0.003 A 
HETATM    2  C   UNK N   1      27.576  27.418  -7.893  0.00  0.00     0.013 A 
HETATM    3  C   UNK N   1      27.895  28.343  -6.882  0.00  0.00     0.013 A 
HETATM    4  C   UNK N   1      27.274  28.254  -5.619  0.00  0.00    -0.022 A 
HETATM    5  C   UNK N   1      26.275  27.299  -5.435  0.00  0.00     0.055 A 
HETATM    6  C   UNK N   1      25.938  26.408  -6.436  0.00  0.00     0.125 A 
HETATM    7  F   UNK N   1      24.972  25.499  -6.207  0.00  0.00    -0.205 F 
ENDROOT
BRANCH   1   8
HETATM    8  C   UNK N   1      26.212  25.404  -8.669  0.00  0.00     0.116 C 
HETATM    9  C   UNK N   1      25.348  25.970  -9.781  0.00  0.00     0.037 C 
BRANCH   8  10
HETATM   10  N   UNK N   1      27.372  24.749  -9.212  0.00  0.00    -0.351 N 
HETATM   11  C   UNK N   1      27.827  23.543  -8.775  0.00  0.00     0.246 C 
HETATM   12  O   UNK N   1      28.753  23.020  -9.378  0.00  0.00    -0.271 OA
HETATM   13  H   UNK N   1      27.862  25.196  -9.939  0.00  0.00     0.163 HD
BRANCH  11  14
HETATM   14  C   UNK N   1      27.259  22.818  -7.559  0.00  0.00     0.114 A 
HETATM   15  C   UNK N   1      26.593  21.570  -8.145  0.00  0.00     0.044 A 
HETATM   16  C   UNK N   1      25.770  22.520  -7.350  0.00  0.00     0.044 A 
BRANCH  14  17
HETATM   17  N   UNK N   1      28.286  22.306  -6.662  0.00  0.00    -0.335 N 
HETATM   18  C   UNK N   1      28.903  22.819  -5.556  0.00  0.00     0.326 C 
HETATM   19  O   UNK N   1      29.859  22.207  -5.107  0.00  0.00    -0.263 OA
HETATM   20  H   UNK N   1      28.601  21.404  -6.904  0.00  0.00     0.164 HD
BRANCH  18  21
HETATM   21  C   UNK N   1      28.496  24.076  -4.819  0.00  0.00     0.472 C 
HETATM   22  F   UNK N   1      28.864  25.180  -5.565  0.00  0.00    -0.162 F 
HETATM   23  F   UNK N   1      29.177  24.119  -3.615  0.00  0.00    -0.162 F 
HETATM   24  F   UNK N   1      27.160  24.152  -4.526  0.00  0.00    -0.162 F 
ENDBRANCH  18  21
ENDBRANCH  14  17
ENDBRANCH  11  14
ENDBRANCH   8  10
ENDBRANCH   1   8
BRANCH   4  25
HETATM   25  C   UNK N   1      27.566  29.228  -4.524  0.00  0.00    -0.008 A 
HETATM   26  C   UNK N   1      26.590  30.199  -4.264  0.00  0.00     0.013 A 
HETATM   27  C   UNK N   1      26.702  31.062  -3.182  0.00  0.00     0.003 A 
HETATM   28  C   UNK N   1      27.794  30.970  -2.329  0.00  0.00     0.025 A 
HETATM   29  C   UNK N   1      28.805  30.038  -2.559  0.00  0.00     0.051 A 
HETATM   30  C   UNK N   1      28.730  29.154  -3.672  0.00  0.00     0.072 A 
HETATM   31 Cl   UNK N   1      30.174  30.085  -1.451  0.00  0.00    -0.083 Cl
BRANCH  30  32
HETATM   32  C   UNK N   1      29.880  28.223  -3.964  0.00  0.00     0.295 C 
HETATM   33  O   UNK N   1      29.984  27.170  -3.355  0.00  0.00    -0.259 OA
BRANCH  32  34
HETATM   34  O   UNK N   1      30.764  28.507  -4.954  0.00  0.00    -0.322 OA
HETATM   35  C   UNK N   1      31.531  29.650  -4.948  0.00  0.00     0.213 C 
ENDBRANCH  32  34
ENDBRANCH  30  32
ENDBRANCH   4  25
TORSDOF 8
ENDMDL
