REMARK  5 active torsions:
REMARK  status: ('A' for Active; 'I' for Inactive)
REMARK    1  A    between atoms: C_12  and  C_10 
REMARK    2  A    between atoms: C_15  and  C_10 
REMARK    3  A    between atoms: C_18  and  C_13 
REMARK    4  A    between atoms: O_27  and  C_15 
REMARK    5  A    between atoms: N_20  and  C_17 
REMARK       I    between atoms: N_26  and  C_18 
ROOT
HETATM    1  C   UNK N   1      -0.184  -2.800   1.481  0.00  0.00     0.045 C 
HETATM    2  C   UNK N   1      -0.420  -2.673  -1.046  0.00  0.00     0.045 C 
HETATM    3  C   UNK N   1      -0.254   0.549   0.382  0.00  0.00     0.171 A 
HETATM    4  C   UNK N   1       1.113   0.049   0.192  0.00  0.00     0.032 A 
HETATM    5  C   UNK N   1       1.158  -1.272   0.138  0.00  0.00     0.065 A 
HETATM    6  C   UNK N   1       2.400   0.463  -0.015  0.00  0.00     0.131 A 
HETATM    7  C   UNK N   1      -2.393  -0.664   0.465  0.00  0.00     0.225 C 
HETATM    8  C   UNK N   1      -0.159  -1.911   0.246  0.00  0.00     0.073 A 
HETATM    9  N   UNK N   1       2.413  -1.709  -0.070  0.00  0.00    -0.300 N 
HETATM   10  N   UNK N   1       3.188  -0.629  -0.171  0.00  0.00    -0.285 N 
ATOM     11  HN  UNK N   1       4.194  -0.626  -0.335  1.00  0.00     0.188 HD
HETATM   12  N   UNK N   1      -1.015  -0.712   0.382  0.00  0.00    -0.333 N 
HETATM   13  O   UNK N   1      -2.924   0.433   0.579  0.00  0.00    -0.273 OA
HETATM   14  H   UNK N   1       2.703  -2.647  -0.135  0.00  0.00     0.186 HD
ENDROOT
BRANCH   6  15
HETATM   15  N   UNK N   1       2.843   1.807  -0.132  0.00  0.00    -0.325 N 
HETATM   16  C   UNK N   1       3.768   2.154  -0.963  0.00  0.00     0.117 C 
ATOM     17  HN  UNK N   1       2.416   2.521   0.458  1.00  0.00     0.169 HD
BRANCH  16  18
HETATM   18  C   UNK N   1       4.248   3.568  -1.011  0.00  0.00     0.088 C 
BRANCH  18  19
HETATM   19  C   UNK N   1       5.145   3.891   0.176  0.00  0.00    -0.015 C 
HETATM   20  C   UNK N   1       5.569   5.342   0.089  0.00  0.00     0.010 C 
HETATM   21  C   UNK N   1       6.393   3.022   0.155  0.00  0.00     0.010 C 
ENDBRANCH  18  19
ENDBRANCH  16  18
BRANCH  16  22
HETATM   22  O   UNK N   1       4.287   1.264  -1.835  0.00  0.00    -0.349 OA
HETATM   23  H   UNK N   1       3.933   0.644  -2.441  0.00  0.00     0.219 HD
ENDBRANCH  16  22
ENDBRANCH   6  15
BRANCH   7  24
HETATM   24  C   UNK N   1      -3.349  -1.856   0.407  0.00  0.00     0.081 C 
HETATM   25  C   UNK N   1      -4.311  -1.674  -0.771  0.00  0.00     0.044 C 
HETATM   26  C   UNK N   1      -5.397  -2.744  -0.732  0.00  0.00     0.272 C 
HETATM   27  N   UNK N   1      -4.791  -4.071  -0.806  0.00  0.00     0.084 N 
HETATM   28  C   UNK N   1      -5.872  -5.038  -0.763  0.00  0.00     0.309 C 
HETATM   29  C   UNK N   1      -3.975  -4.283   0.388  0.00  0.00     0.272 C 
HETATM   30  C   UNK N   1      -2.818  -3.287   0.418  0.00  0.00     0.044 C 
ENDBRANCH   7  24
TORSDOF 5
