REMARK  3 active torsions:
REMARK  status: ('A' for Active; 'I' for Inactive)
REMARK    1  A    between atoms: C_2  and  C_8 
REMARK    2  A    between atoms: O_4  and  C_5 
REMARK    3  A    between atoms: C_10  and  O_11 
ROOT
HETATM    1  C   UNK N   1      -1.734   0.179  -0.000  0.00  0.00     0.099 A 
HETATM    2  C   UNK N   1      -1.762  -1.219   0.000  0.00  0.00     0.040 A 
HETATM    3  C   UNK N   1      -0.566  -1.948   0.000  0.00  0.00     0.018 A 
HETATM    4  C   UNK N   1       0.666  -1.277   0.000  0.00  0.00     0.012 A 
HETATM    5  C   UNK N   1       0.685   0.119   0.000  0.00  0.00     0.054 A 
HETATM    6  C   UNK N   1      -0.506   0.859  -0.000  0.00  0.00     0.102 A 
ENDROOT
BRANCH   4   7
HETATM    7  C   UNK N   1       1.942  -2.024   0.000  0.00  0.00     0.155 C 
HETATM    8  O   UNK N   1       1.944  -3.244   0.000  0.00  0.00    -0.293 OA
HETATM    9  C   UNK N   1       3.248  -1.294  -0.000  0.00  0.00     0.096 C 
ENDBRANCH   4   7
BRANCH   6  10
HETATM   10  O   UNK N   1      -0.482   2.213  -0.000  0.00  0.00    -0.353 OA
HETATM   11  C   UNK N   1       0.689   2.940  -0.000  0.00  0.00     0.210 C 
ENDBRANCH   6  10
BRANCH   1  12
HETATM   12  O   UNK N   1      -2.889   0.869  -0.000  0.00  0.00    -0.358 OA
HETATM   13  H   UNK N   1      -2.875   1.806  -0.000  0.00  0.00     0.217 HD
ENDBRANCH   1  12
TORSDOF 3
