MODEL 1
REMARK VINA RESULT:      -7.1      0.000      0.000
REMARK WARNING: 32 MAX_TORS EXCEEDED!!!
REMARK  52 active torsions:
REMARK  status: ('A' for Active; 'I' for Inactive)
REMARK    1  A    between atoms: C_4  and  C_7 
REMARK    2  A    between atoms: C_7  and  C_8 
REMARK    3  A    between atoms: C_7  and  C_14 
REMARK    4  A    between atoms: C_14  and  C_15 
REMARK    5  A    between atoms: C_14  and  N_27 
REMARK       I    between atoms: C_15  and  N_17 
REMARK    6  A    between atoms: C_18  and  N_17 
REMARK    7  A    between atoms: C_18  and  C_19 
REMARK    8  A    between atoms: C_18  and  C_24 
REMARK    9  A    between atoms: C_19  and  C_20 
REMARK   10  A    between atoms: C_20  and  C_21 
REMARK   11  A    between atoms: C_21  and  C_22 
REMARK   12  A    between atoms: C_22  and  N_23 
REMARK       I    between atoms: C_24  and  N_26 
REMARK       I    between atoms: N_27  and  C_28 
REMARK   13  A    between atoms: C_28  and  C_30 
REMARK   14  A    between atoms: C_30  and  C_31 
REMARK   15  A    between atoms: C_30  and  N_41 
REMARK   16  A    between atoms: C_31  and  C_32 
REMARK       I    between atoms: N_41  and  C_42 
REMARK   17  A    between atoms: C_42  and  C_44 
REMARK   18  A    between atoms: C_44  and  C_45 
REMARK   19  A    between atoms: C_44  and  N_50 
REMARK   20  A    between atoms: C_45  and  C_46 
REMARK   21  A    between atoms: C_46  and  C_47 
REMARK   22  A    between atoms: C_47  and  C_48 
REMARK   23  A    between atoms: C_48  and  N_49 
REMARK       I    between atoms: N_50  and  C_51 
REMARK   24  A    between atoms: C_51  and  C_53 
REMARK   25  A    between atoms: C_53  and  C_54 
REMARK   26  A    between atoms: C_53  and  N_59 
REMARK   27  A    between atoms: C_54  and  C_55 
REMARK   28  A    between atoms: C_55  and  C_56 
REMARK   29  A    between atoms: C_56  and  C_57 
REMARK   30  A    between atoms: C_57  and  N_58 
REMARK       I    between atoms: N_59  and  C_60 
REMARK   31  A    between atoms: C_60  and  C_62 
REMARK   32  A    between atoms: C_62  and  C_63 
REMARK   33  A    between atoms: C_62  and  N_73 
REMARK   34  A    between atoms: C_63  and  C_64 
REMARK       I    between atoms: N_73  and  C_74 
REMARK   35  A    between atoms: C_74  and  C_76 
REMARK   36  A    between atoms: C_76  and  C_77 
REMARK   37  A    between atoms: C_76  and  N_87 
REMARK   38  A    between atoms: C_77  and  C_78 
REMARK       I    between atoms: N_87  and  C_88 
REMARK   39  A    between atoms: C_88  and  C_90 
REMARK   40  A    between atoms: C_90  and  C_91 
REMARK   41  A    between atoms: C_90  and  N_96 
REMARK   42  A    between atoms: C_91  and  C_92 
REMARK   43  A    between atoms: C_92  and  C_93 
REMARK   44  A    between atoms: C_93  and  C_94 
REMARK   45  A    between atoms: C_94  and  N_95 
REMARK       I    between atoms: N_96  and  C_97 
REMARK   46  A    between atoms: C_97  and  C_99 
REMARK   47  A    between atoms: C_99  and  C_100 
REMARK   48  A    between atoms: C_99  and  N_105 
REMARK   49  A    between atoms: C_100  and  C_101 
REMARK   50  A    between atoms: C_101  and  C_102 
REMARK   51  A    between atoms: C_102  and  C_103 
REMARK   52  A    between atoms: C_103  and  N_104 
ROOT
HETATM    1  C   UNK N   1      24.414  17.771   4.787  0.00  0.00     0.176 C 
ENDROOT
BRANCH   1   2
HETATM    2  C   UNK N   1      25.508  16.795   5.038  0.00  0.00     0.241 C 
HETATM    3  N   UNK N   1      26.150  16.297   3.950  0.00  0.00    -0.346 N 
HETATM    4  H   UNK N   1      25.975  16.752   3.095  0.00  0.00     0.163 HD
HETATM    5  O   UNK N   1      25.739  16.390   6.167  0.00  0.00    -0.271 OA
BRANCH   3   6
HETATM    6  C   UNK N   1      27.059  15.181   3.902  0.00  0.00     0.176 C 
BRANCH   6   7
HETATM    7  C   UNK N   1      28.120  15.304   2.842  0.00  0.00     0.241 C 
HETATM    8  N   UNK N   1      29.418  15.491   3.176  0.00  0.00    -0.346 N 
HETATM    9  H   UNK N   1      30.064  15.665   2.454  0.00  0.00     0.163 HD
HETATM   10  O   UNK N   1      27.813  15.273   1.663  0.00  0.00    -0.271 OA
BRANCH   8  11
HETATM   11  C   UNK N   1      29.907  15.450   4.528  0.00  0.00     0.181 C 
BRANCH  11  12
HETATM   12  C   UNK N   1      30.743  14.230   4.852  0.00  0.00     0.241 C 
HETATM   13  N   UNK N   1      32.114  14.162   4.774  0.00  0.00    -0.345 N 
HETATM   14  H   UNK N   1      32.484  13.286   5.034  0.00  0.00     0.163 HD
HETATM   15  O   UNK N   1      30.137  13.223   5.180  0.00  0.00    -0.271 OA
BRANCH  13  16
HETATM   16  C   UNK N   1      33.133  15.141   4.380  0.00  0.00     0.189 C 
BRANCH  16  17
HETATM   17  C   UNK N   1      34.349  15.318   5.311  0.00  0.00     0.083 C 
BRANCH  17  18
HETATM   18  C   UNK N   1      35.304  14.198   5.524  0.00  0.00    -0.047 A 
HETATM   19  C   UNK N   1      34.825  12.935   5.888  0.00  0.00     0.008 A 
HETATM   20  C   UNK N   1      35.710  11.970   6.355  0.00  0.00     0.001 A 
HETATM   21  C   UNK N   1      37.074  12.256   6.458  0.00  0.00     0.000 A 
HETATM   22  C   UNK N   1      37.554  13.512   6.091  0.00  0.00     0.001 A 
HETATM   23  C   UNK N   1      36.666  14.490   5.643  0.00  0.00     0.008 A 
ENDBRANCH  17  18
BRANCH  17  24
HETATM   24  C   UNK N   1      34.200  16.102   6.589  0.00  0.00    -0.047 A 
HETATM   25  C   UNK N   1      34.099  15.414   7.802  0.00  0.00     0.008 A 
HETATM   26  C   UNK N   1      33.773  16.096   8.979  0.00  0.00     0.001 A 
HETATM   27  C   UNK N   1      33.497  17.466   8.940  0.00  0.00     0.000 A 
HETATM   28  C   UNK N   1      33.570  18.159   7.731  0.00  0.00     0.001 A 
HETATM   29  C   UNK N   1      33.918  17.482   6.561  0.00  0.00     0.008 A 
ENDBRANCH  17  24
ENDBRANCH  16  17
BRANCH  16  30
HETATM   30  C   UNK N   1      33.316  15.574   2.933  0.00  0.00     0.242 C 
HETATM   31  O   UNK N   1      32.891  16.659   2.580  0.00  0.00    -0.271 OA
HETATM   32  N   UNK N   1      33.806  14.742   1.969  0.00  0.00    -0.346 N 
HETATM   33  H   UNK N   1      33.845  15.114   1.059  0.00  0.00     0.163 HD
BRANCH  32  34
HETATM   34  C   UNK N   1      34.275  13.377   2.118  0.00  0.00     0.176 C 
BRANCH  34  35
HETATM   35  C   UNK N   1      35.768  13.225   1.847  0.00  0.00     0.035 C 
BRANCH  35  36
HETATM   36  C   UNK N   1      36.412  12.114   2.660  0.00  0.00     0.004 C 
BRANCH  36  37
HETATM   37  C   UNK N   1      37.887  12.007   2.335  0.00  0.00     0.019 C 
BRANCH  37  38
HETATM   38  C   UNK N   1      38.528  13.383   2.362  0.00  0.00     0.111 C 
BRANCH  38  39
HETATM   39  N   UNK N   1      39.695  13.367   3.228  0.00  0.00    -0.430 N 
HETATM   40  H   UNK N   1      40.702  13.413   3.074  0.00  0.00     0.149 HD
HETATM   41  H   UNK N   1      39.450  13.291   4.215  0.00  0.00     0.149 HD
ENDBRANCH  38  39
ENDBRANCH  37  38
ENDBRANCH  36  37
ENDBRANCH  35  36
ENDBRANCH  34  35
BRANCH  34  42
HETATM   42  C   UNK N   1      33.388  12.379   1.441  0.00  0.00     0.238 C 
HETATM   43  O   UNK N   1      32.797  11.531   2.088  0.00  0.00    -0.271 OA
HETATM   44  N   UNK N   1      33.222  12.442   0.105  0.00  0.00    -0.368 N 
HETATM   45  H   UNK N   1      32.733  13.196  -0.297  0.00  0.00     0.159 HD
HETATM   46  H   UNK N   1      33.589  11.733  -0.471  0.00  0.00     0.159 HD
ENDBRANCH  34  42
ENDBRANCH  32  34
ENDBRANCH  16  30
ENDBRANCH  13  16
ENDBRANCH  11  12
BRANCH  11  47
HETATM   47  C   UNK N   1      30.328  16.815   5.142  0.00  0.00     0.075 C 
BRANCH  47  48
HETATM   48  C   UNK N   1      29.306  17.578   5.954  0.00  0.00    -0.028 A 
HETATM   49  C   UNK N   1      28.983  17.358   7.280  0.00  0.00     0.096 A 
HETATM   50  N   UNK N   1      28.041  18.247   7.686  0.00  0.00    -0.365 N 
HETATM   51  C   UNK N   1      27.769  19.012   6.626  0.00  0.00     0.042 A 
HETATM   52  H   UNK N   1      27.640  18.314   8.583  0.00  0.00     0.165 HD
HETATM   53  C   UNK N   1      28.507  18.632   5.540  0.00  0.00    -0.002 A 
HETATM   54  C   UNK N   1      26.868  20.075   6.580  0.00  0.00     0.030 A 
HETATM   55  C   UNK N   1      28.380  19.288   4.319  0.00  0.00     0.014 A 
HETATM   56  C   UNK N   1      27.479  20.367   4.233  0.00  0.00     0.001 A 
HETATM   57  C   UNK N   1      26.730  20.763   5.363  0.00  0.00     0.002 A 
ENDBRANCH  47  48
ENDBRANCH  11  47
ENDBRANCH   8  11
ENDBRANCH   6   7
BRANCH   6  58
HETATM   58  C   UNK N   1      26.427  13.833   4.223  0.00  0.00     0.035 C 
BRANCH  58  59
HETATM   59  C   UNK N   1      27.080  12.653   3.539  0.00  0.00     0.004 C 
BRANCH  59  60
HETATM   60  C   UNK N   1      27.131  11.513   4.540  0.00  0.00     0.019 C 
BRANCH  60  61
HETATM   61  C   UNK N   1      28.195  10.514   4.139  0.00  0.00     0.111 C 
BRANCH  61  62
HETATM   62  N   UNK N   1      29.097  10.297   5.254  0.00  0.00    -0.430 N 
HETATM   63  H   UNK N   1      29.670   9.475   5.443  0.00  0.00     0.149 HD
HETATM   64  H   UNK N   1      29.167  11.058   5.929  0.00  0.00     0.149 HD
ENDBRANCH  61  62
ENDBRANCH  60  61
ENDBRANCH  59  60
ENDBRANCH  58  59
ENDBRANCH   6  58
ENDBRANCH   3   6
ENDBRANCH   1   2
BRANCH   1  65
HETATM   65  C   UNK N   1      24.370  18.453   3.449  0.00  0.00     0.035 C 
BRANCH  65  66
HETATM   66  C   UNK N   1      23.760  19.837   3.646  0.00  0.00     0.004 C 
BRANCH  66  67
HETATM   67  C   UNK N   1      22.767  20.197   2.555  0.00  0.00     0.019 C 
BRANCH  67  68
HETATM   68  C   UNK N   1      21.346  20.014   3.042  0.00  0.00     0.111 C 
BRANCH  68  69
HETATM   69  N   UNK N   1      20.443  19.915   1.907  0.00  0.00    -0.430 N 
HETATM   70  H   UNK N   1      20.115  20.149   0.971  0.00  0.00     0.149 HD
HETATM   71  H   UNK N   1      19.754  19.232   2.225  0.00  0.00     0.149 HD
ENDBRANCH  68  69
ENDBRANCH  67  68
ENDBRANCH  66  67
ENDBRANCH  65  66
ENDBRANCH   1  65
BRANCH   1  72
HETATM   72  N   UNK N   1      23.343  18.029   5.724  0.00  0.00    -0.346 N 
HETATM   73  C   UNK N   1      22.164  17.353   5.818  0.00  0.00     0.241 C 
HETATM   74  O   UNK N   1      21.376  17.691   6.687  0.00  0.00    -0.271 OA
HETATM   75  H   UNK N   1      23.479  18.770   6.359  0.00  0.00     0.163 HD
BRANCH  73  76
HETATM   76  C   UNK N   1      21.807  16.159   4.942  0.00  0.00     0.181 C 
BRANCH  76  77
HETATM   77  C   UNK N   1      21.197  16.530   3.592  0.00  0.00     0.075 C 
BRANCH  77  78
HETATM   78  C   UNK N   1      21.084  15.365   2.653  0.00  0.00    -0.028 A 
HETATM   79  C   UNK N   1      19.937  14.654   2.309  0.00  0.00     0.096 A 
HETATM   80  N   UNK N   1      20.260  13.673   1.429  0.00  0.00    -0.365 N 
HETATM   81  C   UNK N   1      21.591  13.767   1.236  0.00  0.00     0.042 A 
HETATM   82  H   UNK N   1      19.645  13.023   1.016  0.00  0.00     0.165 HD
HETATM   83  C   UNK N   1      22.116  14.789   1.968  0.00  0.00    -0.002 A 
HETATM   84  C   UNK N   1      22.379  12.964   0.419  0.00  0.00     0.030 A 
HETATM   85  C   UNK N   1      23.479  15.090   1.944  0.00  0.00     0.014 A 
HETATM   86  C   UNK N   1      24.307  14.297   1.130  0.00  0.00     0.001 A 
HETATM   87  C   UNK N   1      23.760  13.239   0.369  0.00  0.00     0.002 A 
ENDBRANCH  77  78
ENDBRANCH  76  77
BRANCH  76  88
HETATM   88  N   UNK N   1      20.810  15.332   5.589  0.00  0.00    -0.346 N 
HETATM   89  C   UNK N   1      21.002  14.113   6.136  0.00  0.00     0.241 C 
HETATM   90  O   UNK N   1      20.025  13.470   6.478  0.00  0.00    -0.271 OA
HETATM   91  H   UNK N   1      19.897  15.697   5.636  0.00  0.00     0.163 HD
BRANCH  89  92
HETATM   92  C   UNK N   1      22.360  13.530   6.379  0.00  0.00     0.181 C 
BRANCH  92  93
HETATM   93  C   UNK N   1      23.171  14.398   7.331  0.00  0.00     0.075 C 
BRANCH  93  94
HETATM   94  C   UNK N   1      23.484  13.603   8.559  0.00  0.00    -0.028 A 
HETATM   95  C   UNK N   1      24.741  13.126   8.900  0.00  0.00     0.096 A 
HETATM   96  N   UNK N   1      24.672  12.413  10.047  0.00  0.00    -0.365 N 
HETATM   97  C   UNK N   1      23.380  12.443  10.427  0.00  0.00     0.042 A 
HETATM   98  H   UNK N   1      25.415  11.964  10.511  0.00  0.00     0.165 HD
HETATM   99  C   UNK N   1      22.630  13.166   9.544  0.00  0.00    -0.002 A 
HETATM  100  C   UNK N   1      22.830  11.834  11.547  0.00  0.00     0.030 A 
HETATM  101  C   UNK N   1      21.258  13.338   9.729  0.00  0.00     0.014 A 
HETATM  102  C   UNK N   1      20.665  12.736  10.852  0.00  0.00     0.001 A 
HETATM  103  C   UNK N   1      21.447  11.983  11.758  0.00  0.00     0.002 A 
ENDBRANCH  93  94
ENDBRANCH  92  93
BRANCH  92 104
HETATM  104  N   UNK N   1      23.005  13.079   5.154  0.00  0.00    -0.346 N 
HETATM  105  C   UNK N   1      22.972  11.852   4.560  0.00  0.00     0.241 C 
HETATM  106  O   UNK N   1      23.574  11.701   3.508  0.00  0.00    -0.271 OA
HETATM  107  H   UNK N   1      23.543  13.758   4.686  0.00  0.00     0.163 HD
BRANCH 105 108
HETATM  108  C   UNK N   1      22.224  10.672   5.134  0.00  0.00     0.176 C 
BRANCH 108 109
HETATM  109  C   UNK N   1      21.018  10.362   4.247  0.00  0.00     0.035 C 
BRANCH 109 110
HETATM  110  C   UNK N   1      19.759  10.167   5.073  0.00  0.00     0.004 C 
BRANCH 110 111
HETATM  111  C   UNK N   1      19.530   8.695   5.370  0.00  0.00     0.019 C 
BRANCH 111 112
HETATM  112  C   UNK N   1      18.271   8.194   4.681  0.00  0.00     0.111 C 
BRANCH 112 113
HETATM  113  N   UNK N   1      18.587   7.689   3.355  0.00  0.00    -0.430 N 
HETATM  114  H   UNK N   1      17.913   7.658   2.591  0.00  0.00     0.149 HD
HETATM  115  H   UNK N   1      19.532   7.347   3.181  0.00  0.00     0.149 HD
ENDBRANCH 112 113
ENDBRANCH 111 112
ENDBRANCH 110 111
ENDBRANCH 109 110
ENDBRANCH 108 109
BRANCH 108 116
HETATM  116  N   UNK N   1      23.108   9.528   5.150  0.00  0.00    -0.346 N 
HETATM  117  C   UNK N   1      23.830   9.144   6.233  0.00  0.00     0.240 C 
HETATM  118  O   UNK N   1      23.837   9.822   7.248  0.00  0.00    -0.271 OA
HETATM  119  H   UNK N   1      23.189   8.995   4.326  0.00  0.00     0.163 HD
BRANCH 117 120
HETATM  120  C   UNK N   1      24.633   7.876   6.165  0.00  0.00     0.167 C 
BRANCH 120 121
HETATM  121  C   UNK N   1      24.585   7.099   7.481  0.00  0.00     0.034 C 
BRANCH 121 122
HETATM  122  C   UNK N   1      25.377   5.804   7.443  0.00  0.00     0.004 C 
BRANCH 122 123
HETATM  123  C   UNK N   1      26.350   5.764   8.610  0.00  0.00     0.019 C 
BRANCH 123 124
HETATM  124  C   UNK N   1      26.126   4.525   9.462  0.00  0.00     0.111 C 
BRANCH 124 125
HETATM  125  N   UNK N   1      25.409   3.522   8.694  0.00  0.00    -0.430 N 
HETATM  126  H   UNK N   1      25.000   3.248   7.802  0.00  0.00     0.149 HD
HETATM  127  H   UNK N   1      25.239   2.746   9.333  0.00  0.00     0.149 HD
ENDBRANCH 124 125
ENDBRANCH 123 124
ENDBRANCH 122 123
ENDBRANCH 121 122
ENDBRANCH 120 121
BRANCH 120 128
HETATM  128  N   UNK N   1      26.004   8.103   5.733  0.00  0.00    -0.418 N 
HETATM  129  H   UNK N   1      26.675   8.637   5.182  0.00  0.00     0.150 HD
HETATM  130  H   UNK N   1      26.555   7.389   6.208  0.00  0.00     0.150 HD
ENDBRANCH 120 128
ENDBRANCH 117 120
ENDBRANCH 108 116
ENDBRANCH 105 108
ENDBRANCH  92 104
ENDBRANCH  89  92
ENDBRANCH  76  88
ENDBRANCH  73  76
ENDBRANCH   1  72
TORSDOF 52
ENDMDL
MODEL 2
REMARK VINA RESULT:      -7.0      1.862      2.973
REMARK WARNING: 32 MAX_TORS EXCEEDED!!!
REMARK  52 active torsions:
REMARK  status: ('A' for Active; 'I' for Inactive)
REMARK    1  A    between atoms: C_4  and  C_7 
REMARK    2  A    between atoms: C_7  and  C_8 
REMARK    3  A    between atoms: C_7  and  C_14 
REMARK    4  A    between atoms: C_14  and  C_15 
REMARK    5  A    between atoms: C_14  and  N_27 
REMARK       I    between atoms: C_15  and  N_17 
REMARK    6  A    between atoms: C_18  and  N_17 
REMARK    7  A    between atoms: C_18  and  C_19 
REMARK    8  A    between atoms: C_18  and  C_24 
REMARK    9  A    between atoms: C_19  and  C_20 
REMARK   10  A    between atoms: C_20  and  C_21 
REMARK   11  A    between atoms: C_21  and  C_22 
REMARK   12  A    between atoms: C_22  and  N_23 
REMARK       I    between atoms: C_24  and  N_26 
REMARK       I    between atoms: N_27  and  C_28 
REMARK   13  A    between atoms: C_28  and  C_30 
REMARK   14  A    between atoms: C_30  and  C_31 
REMARK   15  A    between atoms: C_30  and  N_41 
REMARK   16  A    between atoms: C_31  and  C_32 
REMARK       I    between atoms: N_41  and  C_42 
REMARK   17  A    between atoms: C_42  and  C_44 
REMARK   18  A    between atoms: C_44  and  C_45 
REMARK   19  A    between atoms: C_44  and  N_50 
REMARK   20  A    between atoms: C_45  and  C_46 
REMARK   21  A    between atoms: C_46  and  C_47 
REMARK   22  A    between atoms: C_47  and  C_48 
REMARK   23  A    between atoms: C_48  and  N_49 
REMARK       I    between atoms: N_50  and  C_51 
REMARK   24  A    between atoms: C_51  and  C_53 
REMARK   25  A    between atoms: C_53  and  C_54 
REMARK   26  A    between atoms: C_53  and  N_59 
REMARK   27  A    between atoms: C_54  and  C_55 
REMARK   28  A    between atoms: C_55  and  C_56 
REMARK   29  A    between atoms: C_56  and  C_57 
REMARK   30  A    between atoms: C_57  and  N_58 
REMARK       I    between atoms: N_59  and  C_60 
REMARK   31  A    between atoms: C_60  and  C_62 
REMARK   32  A    between atoms: C_62  and  C_63 
REMARK   33  A    between atoms: C_62  and  N_73 
REMARK   34  A    between atoms: C_63  and  C_64 
REMARK       I    between atoms: N_73  and  C_74 
REMARK   35  A    between atoms: C_74  and  C_76 
REMARK   36  A    between atoms: C_76  and  C_77 
REMARK   37  A    between atoms: C_76  and  N_87 
REMARK   38  A    between atoms: C_77  and  C_78 
REMARK       I    between atoms: N_87  and  C_88 
REMARK   39  A    between atoms: C_88  and  C_90 
REMARK   40  A    between atoms: C_90  and  C_91 
REMARK   41  A    between atoms: C_90  and  N_96 
REMARK   42  A    between atoms: C_91  and  C_92 
REMARK   43  A    between atoms: C_92  and  C_93 
REMARK   44  A    between atoms: C_93  and  C_94 
REMARK   45  A    between atoms: C_94  and  N_95 
REMARK       I    between atoms: N_96  and  C_97 
REMARK   46  A    between atoms: C_97  and  C_99 
REMARK   47  A    between atoms: C_99  and  C_100 
REMARK   48  A    between atoms: C_99  and  N_105 
REMARK   49  A    between atoms: C_100  and  C_101 
REMARK   50  A    between atoms: C_101  and  C_102 
REMARK   51  A    between atoms: C_102  and  C_103 
REMARK   52  A    between atoms: C_103  and  N_104 
ROOT
HETATM    1  C   UNK N   1      24.327  17.805   4.685  0.00  0.00     0.176 C 
ENDROOT
BRANCH   1   2
HETATM    2  C   UNK N   1      25.446  16.848   4.896  0.00  0.00     0.241 C 
HETATM    3  N   UNK N   1      26.001  16.295   3.788  0.00  0.00    -0.346 N 
HETATM    4  H   UNK N   1      25.753  16.703   2.927  0.00  0.00     0.163 HD
HETATM    5  O   UNK N   1      25.771  16.505   6.023  0.00  0.00    -0.271 OA
BRANCH   3   6
HETATM    6  C   UNK N   1      26.913  15.182   3.725  0.00  0.00     0.176 C 
BRANCH   6   7
HETATM    7  C   UNK N   1      28.155  15.455   2.920  0.00  0.00     0.241 C 
HETATM    8  N   UNK N   1      29.285  15.901   3.515  0.00  0.00    -0.346 N 
HETATM    9  H   UNK N   1      30.042  16.161   2.941  0.00  0.00     0.163 HD
HETATM   10  O   UNK N   1      28.142  15.311   1.710  0.00  0.00    -0.271 OA
BRANCH   8  11
HETATM   11  C   UNK N   1      29.444  16.017   4.940  0.00  0.00     0.181 C 
BRANCH  11  12
HETATM   12  C   UNK N   1      30.256  14.906   5.569  0.00  0.00     0.241 C 
HETATM   13  N   UNK N   1      31.504  15.050   6.127  0.00  0.00    -0.345 N 
HETATM   14  H   UNK N   1      31.873  14.215   6.498  0.00  0.00     0.163 HD
HETATM   15  O   UNK N   1      29.764  13.789   5.548  0.00  0.00    -0.271 OA
BRANCH  13  16
HETATM   16  C   UNK N   1      32.392  16.208   6.279  0.00  0.00     0.189 C 
BRANCH  16  17
HETATM   17  C   UNK N   1      32.531  16.821   7.687  0.00  0.00     0.083 C 
BRANCH  17  18
HETATM   18  C   UNK N   1      33.464  16.225   8.679  0.00  0.00    -0.047 A 
HETATM   19  C   UNK N   1      33.115  15.042   9.339  0.00  0.00     0.008 A 
HETATM   20  C   UNK N   1      33.840  14.635  10.453  0.00  0.00     0.001 A 
HETATM   21  C   UNK N   1      34.916  15.399  10.913  0.00  0.00     0.000 A 
HETATM   22  C   UNK N   1      35.268  16.577  10.254  0.00  0.00     0.001 A 
HETATM   23  C   UNK N   1      34.529  17.000   9.148  0.00  0.00     0.008 A 
ENDBRANCH  17  18
BRANCH  17  24
HETATM   24  C   UNK N   1      31.306  17.341   8.395  0.00  0.00    -0.047 A 
HETATM   25  C   UNK N   1      31.215  18.707   8.681  0.00  0.00     0.008 A 
HETATM   26  C   UNK N   1      30.188  19.192   9.497  0.00  0.00     0.001 A 
HETATM   27  C   UNK N   1      29.273  18.306  10.072  0.00  0.00     0.000 A 
HETATM   28  C   UNK N   1      29.368  16.938   9.813  0.00  0.00     0.001 A 
HETATM   29  C   UNK N   1      30.380  16.457   8.980  0.00  0.00     0.008 A 
ENDBRANCH  17  24
ENDBRANCH  16  17
BRANCH  16  30
HETATM   30  C   UNK N   1      33.525  16.486   5.302  0.00  0.00     0.242 C 
HETATM   31  O   UNK N   1      33.409  17.396   4.501  0.00  0.00    -0.271 OA
HETATM   32  N   UNK N   1      34.612  15.670   5.179  0.00  0.00    -0.346 N 
HETATM   33  H   UNK N   1      35.265  15.925   4.488  0.00  0.00     0.163 HD
BRANCH  32  34
HETATM   34  C   UNK N   1      34.925  14.473   5.939  0.00  0.00     0.176 C 
BRANCH  34  35
HETATM   35  C   UNK N   1      36.350  14.463   6.479  0.00  0.00     0.035 C 
BRANCH  35  36
HETATM   36  C   UNK N   1      36.447  13.920   7.895  0.00  0.00     0.004 C 
BRANCH  36  37
HETATM   37  C   UNK N   1      37.890  13.628   8.251  0.00  0.00     0.019 C 
BRANCH  37  38
HETATM   38  C   UNK N   1      38.180  14.087   9.668  0.00  0.00     0.111 C 
BRANCH  38  39
HETATM   39  N   UNK N   1      37.670  13.113  10.618  0.00  0.00    -0.430 N 
HETATM   40  H   UNK N   1      36.830  13.042  11.191  0.00  0.00     0.149 HD
HETATM   41  H   UNK N   1      38.297  12.317  10.739  0.00  0.00     0.149 HD
ENDBRANCH  38  39
ENDBRANCH  37  38
ENDBRANCH  36  37
ENDBRANCH  35  36
ENDBRANCH  34  35
BRANCH  34  42
HETATM   42  C   UNK N   1      34.481  13.218   5.255  0.00  0.00     0.238 C 
HETATM   43  O   UNK N   1      33.296  12.964   5.126  0.00  0.00    -0.271 OA
HETATM   44  N   UNK N   1      35.406  12.377   4.753  0.00  0.00    -0.368 N 
HETATM   45  H   UNK N   1      35.949  12.645   3.976  0.00  0.00     0.159 HD
HETATM   46  H   UNK N   1      35.541  11.491   5.163  0.00  0.00     0.159 HD
ENDBRANCH  34  42
ENDBRANCH  32  34
ENDBRANCH  16  30
ENDBRANCH  13  16
ENDBRANCH  11  12
BRANCH  11  47
HETATM   47  C   UNK N   1      29.620  17.460   5.490  0.00  0.00     0.075 C 
BRANCH  47  48
HETATM   48  C   UNK N   1      28.684  18.535   4.988  0.00  0.00    -0.028 A 
HETATM   49  C   UNK N   1      28.389  18.812   3.665  0.00  0.00     0.096 A 
HETATM   50  N   UNK N   1      27.492  19.827   3.589  0.00  0.00    -0.365 N 
HETATM   51  C   UNK N   1      27.231  20.190   4.847  0.00  0.00     0.042 A 
HETATM   52  H   UNK N   1      27.109  20.217   2.769  0.00  0.00     0.165 HD
HETATM   53  C   UNK N   1      27.946  19.438   5.737  0.00  0.00    -0.002 A 
HETATM   54  C   UNK N   1      26.349  21.189   5.256  0.00  0.00     0.030 A 
HETATM   55  C   UNK N   1      27.838  19.650   7.108  0.00  0.00     0.014 A 
HETATM   56  C   UNK N   1      26.956  20.651   7.559  0.00  0.00     0.001 A 
HETATM   57  C   UNK N   1      26.209  21.415   6.635  0.00  0.00     0.002 A 
ENDBRANCH  47  48
ENDBRANCH  11  47
ENDBRANCH   8  11
ENDBRANCH   6   7
BRANCH   6  58
HETATM   58  C   UNK N   1      26.244  13.814   3.691  0.00  0.00     0.035 C 
BRANCH  58  59
HETATM   59  C   UNK N   1      27.174  12.667   3.366  0.00  0.00     0.004 C 
BRANCH  59  60
HETATM   60  C   UNK N   1      26.688  12.033   2.074  0.00  0.00     0.019 C 
BRANCH  60  61
HETATM   61  C   UNK N   1      27.860  11.488   1.288  0.00  0.00     0.111 C 
BRANCH  61  62
HETATM   62  N   UNK N   1      28.968  12.422   1.365  0.00  0.00    -0.430 N 
HETATM   63  H   UNK N   1      29.813  12.344   1.930  0.00  0.00     0.149 HD
HETATM   64  H   UNK N   1      28.892  13.257   0.783  0.00  0.00     0.149 HD
ENDBRANCH  61  62
ENDBRANCH  60  61
ENDBRANCH  59  60
ENDBRANCH  58  59
ENDBRANCH   6  58
ENDBRANCH   3   6
ENDBRANCH   1   2
BRANCH   1  65
HETATM   65  C   UNK N   1      24.205  18.462   3.338  0.00  0.00     0.035 C 
BRANCH  65  66
HETATM   66  C   UNK N   1      23.680  19.877   3.552  0.00  0.00     0.004 C 
BRANCH  66  67
HETATM   67  C   UNK N   1      22.606  20.258   2.548  0.00  0.00     0.019 C 
BRANCH  67  68
HETATM   68  C   UNK N   1      21.228  19.959   3.097  0.00  0.00     0.111 C 
BRANCH  68  69
HETATM   69  N   UNK N   1      20.264  19.900   2.011  0.00  0.00    -0.430 N 
HETATM   70  H   UNK N   1      19.749  20.280   1.218  0.00  0.00     0.149 HD
HETATM   71  H   UNK N   1      19.901  18.948   2.083  0.00  0.00     0.149 HD
ENDBRANCH  68  69
ENDBRANCH  67  68
ENDBRANCH  66  67
ENDBRANCH  65  66
ENDBRANCH   1  65
BRANCH   1  72
HETATM   72  N   UNK N   1      23.300  18.065   5.669  0.00  0.00    -0.346 N 
HETATM   73  C   UNK N   1      22.137  17.375   5.833  0.00  0.00     0.241 C 
HETATM   74  O   UNK N   1      21.388  17.718   6.734  0.00  0.00    -0.271 OA
HETATM   75  H   UNK N   1      23.458  18.817   6.285  0.00  0.00     0.163 HD
BRANCH  73  76
HETATM   76  C   UNK N   1      21.752  16.163   4.995  0.00  0.00     0.181 C 
BRANCH  76  77
HETATM   77  C   UNK N   1      21.093  16.504   3.661  0.00  0.00     0.075 C 
BRANCH  77  78
HETATM   78  C   UNK N   1      20.886  15.307   2.779  0.00  0.00    -0.028 A 
HETATM   79  C   UNK N   1      19.720  14.564   2.608  0.00  0.00     0.096 A 
HETATM   80  N   UNK N   1      19.949  13.561   1.723  0.00  0.00    -0.365 N 
HETATM   81  C   UNK N   1      21.242  13.673   1.356  0.00  0.00     0.042 A 
HETATM   82  H   UNK N   1      19.301  12.888   1.412  0.00  0.00     0.165 HD
HETATM   83  C   UNK N   1      21.834  14.729   1.983  0.00  0.00    -0.002 A 
HETATM   84  C   UNK N   1      21.936  12.859   0.468  0.00  0.00     0.030 A 
HETATM   85  C   UNK N   1      23.175  15.053   1.774  0.00  0.00     0.014 A 
HETATM   86  C   UNK N   1      23.909  14.250   0.884  0.00  0.00     0.001 A 
HETATM   87  C   UNK N   1      23.292  13.158   0.232  0.00  0.00     0.002 A 
ENDBRANCH  77  78
ENDBRANCH  76  77
BRANCH  76  88
HETATM   88  N   UNK N   1      20.782  15.346   5.695  0.00  0.00    -0.346 N 
HETATM   89  C   UNK N   1      21.000  14.144   6.268  0.00  0.00     0.241 C 
HETATM   90  O   UNK N   1      20.039  13.504   6.657  0.00  0.00    -0.271 OA
HETATM   91  H   UNK N   1      19.868  15.706   5.759  0.00  0.00     0.163 HD
BRANCH  89  92
HETATM   92  C   UNK N   1      22.370  13.577   6.485  0.00  0.00     0.181 C 
BRANCH  92  93
HETATM   93  C   UNK N   1      23.181  14.443   7.439  0.00  0.00     0.075 C 
BRANCH  93  94
HETATM   94  C   UNK N   1      23.528  13.632   8.647  0.00  0.00    -0.028 A 
HETATM   95  C   UNK N   1      24.801  13.177   8.961  0.00  0.00     0.096 A 
HETATM   96  N   UNK N   1      24.764  12.442  10.095  0.00  0.00    -0.365 N 
HETATM   97  C   UNK N   1      23.477  12.436  10.494  0.00  0.00     0.042 A 
HETATM   98  H   UNK N   1      25.523  12.001  10.540  0.00  0.00     0.165 HD
HETATM   99  C   UNK N   1      22.699  13.159   9.636  0.00  0.00    -0.002 A 
HETATM  100  C   UNK N   1      22.957  11.794  11.610  0.00  0.00     0.030 A 
HETATM  101  C   UNK N   1      21.326  13.296   9.843  0.00  0.00     0.014 A 
HETATM  102  C   UNK N   1      20.763  12.660  10.963  0.00  0.00     0.001 A 
HETATM  103  C   UNK N   1      21.574  11.909  11.843  0.00  0.00     0.002 A 
ENDBRANCH  93  94
ENDBRANCH  92  93
BRANCH  92 104
HETATM  104  N   UNK N   1      23.005  13.153   5.245  0.00  0.00    -0.346 N 
HETATM  105  C   UNK N   1      22.801  12.021   4.512  0.00  0.00     0.241 C 
HETATM  106  O   UNK N   1      23.435  11.880   3.477  0.00  0.00    -0.271 OA
HETATM  107  H   UNK N   1      23.678  13.773   4.883  0.00  0.00     0.163 HD
BRANCH 105 108
HETATM  108  C   UNK N   1      21.829  10.937   4.912  0.00  0.00     0.176 C 
BRANCH 108 109
HETATM  109  C   UNK N   1      20.758  10.798   3.829  0.00  0.00     0.035 C 
BRANCH 109 110
HETATM  110  C   UNK N   1      20.958   9.535   3.013  0.00  0.00     0.004 C 
BRANCH 110 111
HETATM  111  C   UNK N   1      20.304   9.665   1.648  0.00  0.00     0.019 C 
BRANCH 111 112
HETATM  112  C   UNK N   1      18.845  10.071   1.783  0.00  0.00     0.111 C 
BRANCH 112 113
HETATM  113  N   UNK N   1      18.002   8.894   1.911  0.00  0.00    -0.430 N 
HETATM  114  H   UNK N   1      17.125   8.886   2.431  0.00  0.00     0.149 HD
HETATM  115  H   UNK N   1      18.305   8.032   1.459  0.00  0.00     0.149 HD
ENDBRANCH 112 113
ENDBRANCH 111 112
ENDBRANCH 110 111
ENDBRANCH 109 110
ENDBRANCH 108 109
BRANCH 108 116
HETATM  116  N   UNK N   1      22.550   9.690   5.028  0.00  0.00    -0.346 N 
HETATM  117  C   UNK N   1      23.270   9.331   6.122  0.00  0.00     0.240 C 
HETATM  118  O   UNK N   1      23.421  10.109   7.050  0.00  0.00    -0.271 OA
HETATM  119  H   UNK N   1      22.516   9.063   4.270  0.00  0.00     0.163 HD
BRANCH 117 120
HETATM  120  C   UNK N   1      23.891   7.964   6.173  0.00  0.00     0.167 C 
BRANCH 120 121
HETATM  121  C   UNK N   1      22.837   6.864   6.316  0.00  0.00     0.034 C 
BRANCH 121 122
HETATM  122  C   UNK N   1      22.474   6.204   4.997  0.00  0.00     0.004 C 
BRANCH 122 123
HETATM  123  C   UNK N   1      20.963   6.160   4.846  0.00  0.00     0.019 C 
BRANCH 123 124
HETATM  124  C   UNK N   1      20.291   7.118   5.816  0.00  0.00     0.111 C 
BRANCH 124 125
HETATM  125  N   UNK N   1      18.989   7.507   5.303  0.00  0.00    -0.430 N 
HETATM  126  H   UNK N   1      17.980   7.539   5.444  0.00  0.00     0.149 HD
HETATM  127  H   UNK N   1      19.162   7.942   4.397  0.00  0.00     0.149 HD
ENDBRANCH 124 125
ENDBRANCH 123 124
ENDBRANCH 122 123
ENDBRANCH 121 122
ENDBRANCH 120 121
BRANCH 120 128
HETATM  128  N   UNK N   1      24.917   7.851   7.197  0.00  0.00    -0.418 N 
HETATM  129  H   UNK N   1      25.725   8.245   7.680  0.00  0.00     0.150 HD
HETATM  130  H   UNK N   1      24.748   6.952   7.647  0.00  0.00     0.150 HD
ENDBRANCH 120 128
ENDBRANCH 117 120
ENDBRANCH 108 116
ENDBRANCH 105 108
ENDBRANCH  92 104
ENDBRANCH  89  92
ENDBRANCH  76  88
ENDBRANCH  73  76
ENDBRANCH   1  72
TORSDOF 52
ENDMDL
MODEL 3
REMARK VINA RESULT:      -6.9      2.609     11.448
REMARK WARNING: 32 MAX_TORS EXCEEDED!!!
REMARK  52 active torsions:
REMARK  status: ('A' for Active; 'I' for Inactive)
REMARK    1  A    between atoms: C_4  and  C_7 
REMARK    2  A    between atoms: C_7  and  C_8 
REMARK    3  A    between atoms: C_7  and  C_14 
REMARK    4  A    between atoms: C_14  and  C_15 
REMARK    5  A    between atoms: C_14  and  N_27 
REMARK       I    between atoms: C_15  and  N_17 
REMARK    6  A    between atoms: C_18  and  N_17 
REMARK    7  A    between atoms: C_18  and  C_19 
REMARK    8  A    between atoms: C_18  and  C_24 
REMARK    9  A    between atoms: C_19  and  C_20 
REMARK   10  A    between atoms: C_20  and  C_21 
REMARK   11  A    between atoms: C_21  and  C_22 
REMARK   12  A    between atoms: C_22  and  N_23 
REMARK       I    between atoms: C_24  and  N_26 
REMARK       I    between atoms: N_27  and  C_28 
REMARK   13  A    between atoms: C_28  and  C_30 
REMARK   14  A    between atoms: C_30  and  C_31 
REMARK   15  A    between atoms: C_30  and  N_41 
REMARK   16  A    between atoms: C_31  and  C_32 
REMARK       I    between atoms: N_41  and  C_42 
REMARK   17  A    between atoms: C_42  and  C_44 
REMARK   18  A    between atoms: C_44  and  C_45 
REMARK   19  A    between atoms: C_44  and  N_50 
REMARK   20  A    between atoms: C_45  and  C_46 
REMARK   21  A    between atoms: C_46  and  C_47 
REMARK   22  A    between atoms: C_47  and  C_48 
REMARK   23  A    between atoms: C_48  and  N_49 
REMARK       I    between atoms: N_50  and  C_51 
REMARK   24  A    between atoms: C_51  and  C_53 
REMARK   25  A    between atoms: C_53  and  C_54 
REMARK   26  A    between atoms: C_53  and  N_59 
REMARK   27  A    between atoms: C_54  and  C_55 
REMARK   28  A    between atoms: C_55  and  C_56 
REMARK   29  A    between atoms: C_56  and  C_57 
REMARK   30  A    between atoms: C_57  and  N_58 
REMARK       I    between atoms: N_59  and  C_60 
REMARK   31  A    between atoms: C_60  and  C_62 
REMARK   32  A    between atoms: C_62  and  C_63 
REMARK   33  A    between atoms: C_62  and  N_73 
REMARK   34  A    between atoms: C_63  and  C_64 
REMARK       I    between atoms: N_73  and  C_74 
REMARK   35  A    between atoms: C_74  and  C_76 
REMARK   36  A    between atoms: C_76  and  C_77 
REMARK   37  A    between atoms: C_76  and  N_87 
REMARK   38  A    between atoms: C_77  and  C_78 
REMARK       I    between atoms: N_87  and  C_88 
REMARK   39  A    between atoms: C_88  and  C_90 
REMARK   40  A    between atoms: C_90  and  C_91 
REMARK   41  A    between atoms: C_90  and  N_96 
REMARK   42  A    between atoms: C_91  and  C_92 
REMARK   43  A    between atoms: C_92  and  C_93 
REMARK   44  A    between atoms: C_93  and  C_94 
REMARK   45  A    between atoms: C_94  and  N_95 
REMARK       I    between atoms: N_96  and  C_97 
REMARK   46  A    between atoms: C_97  and  C_99 
REMARK   47  A    between atoms: C_99  and  C_100 
REMARK   48  A    between atoms: C_99  and  N_105 
REMARK   49  A    between atoms: C_100  and  C_101 
REMARK   50  A    between atoms: C_101  and  C_102 
REMARK   51  A    between atoms: C_102  and  C_103 
REMARK   52  A    between atoms: C_103  and  N_104 
ROOT
HETATM    1  C   UNK N   1      30.318  14.320   3.465  0.00  0.00     0.176 C 
ENDROOT
BRANCH   1   2
HETATM    2  C   UNK N   1      29.029  14.603   2.778  0.00  0.00     0.241 C 
HETATM    3  N   UNK N   1      28.085  13.629   2.814  0.00  0.00    -0.346 N 
HETATM    4  H   UNK N   1      28.246  12.889   3.443  0.00  0.00     0.163 HD
HETATM    5  O   UNK N   1      28.879  15.626   2.127  0.00  0.00    -0.271 OA
BRANCH   3   6
HETATM    6  C   UNK N   1      26.873  13.552   2.040  0.00  0.00     0.176 C 
BRANCH   6   7
HETATM    7  C   UNK N   1      25.716  14.302   2.642  0.00  0.00     0.241 C 
HETATM    8  N   UNK N   1      24.754  13.655   3.340  0.00  0.00    -0.346 N 
HETATM    9  H   UNK N   1      23.966  14.168   3.633  0.00  0.00     0.163 HD
HETATM   10  O   UNK N   1      25.614  15.505   2.474  0.00  0.00    -0.271 OA
BRANCH   8  11
HETATM   11  C   UNK N   1      24.819  12.259   3.680  0.00  0.00     0.181 C 
BRANCH  11  12
HETATM   12  C   UNK N   1      25.638  11.956   4.916  0.00  0.00     0.241 C 
HETATM   13  N   UNK N   1      25.382  12.438   6.178  0.00  0.00    -0.345 N 
HETATM   14  H   UNK N   1      26.018  12.122   6.861  0.00  0.00     0.163 HD
HETATM   15  O   UNK N   1      26.619  11.247   4.762  0.00  0.00    -0.271 OA
BRANCH  13  16
HETATM   16  C   UNK N   1      24.342  13.328   6.705  0.00  0.00     0.189 C 
BRANCH  16  17
HETATM   17  C   UNK N   1      23.197  12.688   7.515  0.00  0.00     0.083 C 
BRANCH  17  18
HETATM   18  C   UNK N   1      23.267  12.628   8.999  0.00  0.00    -0.047 A 
HETATM   19  C   UNK N   1      24.492  12.387   9.629  0.00  0.00     0.008 A 
HETATM   20  C   UNK N   1      24.521  12.056  10.979  0.00  0.00     0.001 A 
HETATM   21  C   UNK N   1      23.332  11.965  11.707  0.00  0.00     0.000 A 
HETATM   22  C   UNK N   1      22.109  12.209  11.083  0.00  0.00     0.001 A 
HETATM   23  C   UNK N   1      22.075  12.521   9.723  0.00  0.00     0.008 A 
ENDBRANCH  17  18
BRANCH  17  24
HETATM   24  C   UNK N   1      22.519  11.448   6.991  0.00  0.00    -0.047 A 
HETATM   25  C   UNK N   1      23.231  10.246   6.957  0.00  0.00     0.008 A 
HETATM   26  C   UNK N   1      22.701   9.127   6.308  0.00  0.00     0.001 A 
HETATM   27  C   UNK N   1      21.473   9.217   5.646  0.00  0.00     0.000 A 
HETATM   28  C   UNK N   1      20.763  10.420   5.653  0.00  0.00     0.001 A 
HETATM   29  C   UNK N   1      21.284  11.530   6.321  0.00  0.00     0.008 A 
ENDBRANCH  17  24
ENDBRANCH  16  17
BRANCH  16  30
HETATM   30  C   UNK N   1      24.597  14.810   6.942  0.00  0.00     0.242 C 
HETATM   31  O   UNK N   1      25.558  15.148   7.607  0.00  0.00    -0.271 OA
HETATM   32  N   UNK N   1      23.714  15.780   6.567  0.00  0.00    -0.346 N 
HETATM   33  H   UNK N   1      23.961  16.703   6.805  0.00  0.00     0.163 HD
BRANCH  32  34
HETATM   34  C   UNK N   1      22.455  15.622   5.862  0.00  0.00     0.176 C 
BRANCH  34  35
HETATM   35  C   UNK N   1      22.425  16.346   4.521  0.00  0.00     0.035 C 
BRANCH  35  36
HETATM   36  C   UNK N   1      21.165  17.171   4.316  0.00  0.00     0.004 C 
BRANCH  36  37
HETATM   37  C   UNK N   1      20.957  17.461   2.844  0.00  0.00     0.019 C 
BRANCH  37  38
HETATM   38  C   UNK N   1      20.387  18.856   2.664  0.00  0.00     0.111 C 
BRANCH  38  39
HETATM   39  N   UNK N   1      20.821  19.712   3.755  0.00  0.00    -0.430 N 
HETATM   40  H   UNK N   1      20.385  20.456   4.299  0.00  0.00     0.149 HD
HETATM   41  H   UNK N   1      21.783  19.526   4.041  0.00  0.00     0.149 HD
ENDBRANCH  38  39
ENDBRANCH  37  38
ENDBRANCH  36  37
ENDBRANCH  35  36
ENDBRANCH  34  35
BRANCH  34  42
HETATM   42  C   UNK N   1      21.264  15.839   6.743  0.00  0.00     0.238 C 
HETATM   43  O   UNK N   1      21.249  16.744   7.560  0.00  0.00    -0.271 OA
HETATM   44  N   UNK N   1      20.187  15.041   6.607  0.00  0.00    -0.368 N 
HETATM   45  H   UNK N   1      19.634  15.091   5.794  0.00  0.00     0.159 HD
HETATM   46  H   UNK N   1      19.951  14.406   7.321  0.00  0.00     0.159 HD
ENDBRANCH  34  42
ENDBRANCH  32  34
ENDBRANCH  16  30
ENDBRANCH  13  16
ENDBRANCH  11  12
BRANCH  11  47
HETATM   47  C   UNK N   1      23.522  11.438   3.436  0.00  0.00     0.075 C 
BRANCH  47  48
HETATM   48  C   UNK N   1      22.650  11.813   2.260  0.00  0.00    -0.028 A 
HETATM   49  C   UNK N   1      22.837  11.428   0.945  0.00  0.00     0.096 A 
HETATM   50  N   UNK N   1      21.848  11.931   0.165  0.00  0.00    -0.365 N 
HETATM   51  C   UNK N   1      21.051  12.630   0.977  0.00  0.00     0.042 A 
HETATM   52  H   UNK N   1      21.738  11.804  -0.806  0.00  0.00     0.165 HD
HETATM   53  C   UNK N   1      21.509  12.599   2.265  0.00  0.00    -0.002 A 
HETATM   54  C   UNK N   1      19.891  13.314   0.614  0.00  0.00     0.030 A 
HETATM   55  C   UNK N   1      20.837  13.270   3.283  0.00  0.00     0.014 A 
HETATM   56  C   UNK N   1      19.660  13.971   2.955  0.00  0.00     0.001 A 
HETATM   57  C   UNK N   1      19.186  13.988   1.625  0.00  0.00     0.002 A 
ENDBRANCH  47  48
ENDBRANCH  11  47
ENDBRANCH   8  11
ENDBRANCH   6   7
BRANCH   6  58
HETATM   58  C   UNK N   1      26.657  12.223   1.327  0.00  0.00     0.035 C 
BRANCH  58  59
HETATM   59  C   UNK N   1      27.805  11.248   1.454  0.00  0.00     0.004 C 
BRANCH  59  60
HETATM   60  C   UNK N   1      27.271   9.865   1.127  0.00  0.00     0.019 C 
BRANCH  60  61
HETATM   61  C   UNK N   1      28.183   8.804   1.704  0.00  0.00     0.111 C 
BRANCH  61  62
HETATM   62  N   UNK N   1      27.486   8.092   2.758  0.00  0.00    -0.430 N 
HETATM   63  H   UNK N   1      27.434   7.083   2.903  0.00  0.00     0.149 HD
HETATM   64  H   UNK N   1      26.988   8.668   3.436  0.00  0.00     0.149 HD
ENDBRANCH  61  62
ENDBRANCH  60  61
ENDBRANCH  59  60
ENDBRANCH  58  59
ENDBRANCH   6  58
ENDBRANCH   3   6
ENDBRANCH   1   2
BRANCH   1  65
HETATM   65  C   UNK N   1      30.297  13.392   4.647  0.00  0.00     0.035 C 
BRANCH  65  66
HETATM   66  C   UNK N   1      31.392  12.350   4.445  0.00  0.00     0.004 C 
BRANCH  66  67
HETATM   67  C   UNK N   1      30.890  11.106   3.733  0.00  0.00     0.019 C 
BRANCH  67  68
HETATM   68  C   UNK N   1      29.953  10.321   4.624  0.00  0.00     0.111 C 
BRANCH  68  69
HETATM   69  N   UNK N   1      30.634   9.947   5.852  0.00  0.00    -0.430 N 
HETATM   70  H   UNK N   1      31.216  10.124   6.671  0.00  0.00     0.149 HD
HETATM   71  H   UNK N   1      30.399   8.958   5.950  0.00  0.00     0.149 HD
ENDBRANCH  68  69
ENDBRANCH  67  68
ENDBRANCH  66  67
ENDBRANCH  65  66
ENDBRANCH   1  65
BRANCH   1  72
HETATM   72  N   UNK N   1      31.596  14.815   3.003  0.00  0.00    -0.346 N 
HETATM   73  C   UNK N   1      32.336  15.808   3.570  0.00  0.00     0.241 C 
HETATM   74  O   UNK N   1      33.409  16.086   3.059  0.00  0.00    -0.271 OA
HETATM   75  H   UNK N   1      31.969  14.390   2.197  0.00  0.00     0.163 HD
BRANCH  73  76
HETATM   76  C   UNK N   1      31.927  16.543   4.839  0.00  0.00     0.181 C 
BRANCH  76  77
HETATM   77  C   UNK N   1      30.774  17.526   4.653  0.00  0.00     0.075 C 
BRANCH  77  78
HETATM   78  C   UNK N   1      29.648  17.308   5.620  0.00  0.00    -0.028 A 
HETATM   79  C   UNK N   1      28.377  16.804   5.353  0.00  0.00     0.096 A 
HETATM   80  N   UNK N   1      27.655  16.764   6.501  0.00  0.00    -0.365 N 
HETATM   81  C   UNK N   1      28.462  17.245   7.468  0.00  0.00     0.042 A 
HETATM   82  H   UNK N   1      26.728  16.447   6.606  0.00  0.00     0.165 HD
HETATM   83  C   UNK N   1      29.681  17.583   6.958  0.00  0.00    -0.002 A 
HETATM   84  C   UNK N   1      28.156  17.404   8.814  0.00  0.00     0.030 A 
HETATM   85  C   UNK N   1      30.694  18.111   7.759  0.00  0.00     0.014 A 
HETATM   86  C   UNK N   1      30.419  18.287   9.126  0.00  0.00     0.001 A 
HETATM   87  C   UNK N   1      29.156  17.934   9.653  0.00  0.00     0.002 A 
ENDBRANCH  77  78
ENDBRANCH  76  77
BRANCH  76  88
HETATM   88  N   UNK N   1      33.025  17.343   5.341  0.00  0.00    -0.346 N 
HETATM   89  C   UNK N   1      33.861  17.026   6.351  0.00  0.00     0.241 C 
HETATM   90  O   UNK N   1      34.616  17.885   6.772  0.00  0.00    -0.271 OA
HETATM   91  H   UNK N   1      33.177  18.209   4.898  0.00  0.00     0.163 HD
BRANCH  89  92
HETATM   92  C   UNK N   1      33.933  15.656   6.954  0.00  0.00     0.181 C 
BRANCH  92  93
HETATM   93  C   UNK N   1      33.084  15.562   8.214  0.00  0.00     0.075 C 
BRANCH  93  94
HETATM   94  C   UNK N   1      33.955  15.825   9.402  0.00  0.00    -0.028 A 
HETATM   95  C   UNK N   1      34.399  17.077   9.801  0.00  0.00     0.096 A 
HETATM   96  N   UNK N   1      35.199  16.961  10.886  0.00  0.00    -0.365 N 
HETATM   97  C   UNK N   1      35.255  15.645  11.169  0.00  0.00     0.042 A 
HETATM   98  H   UNK N   1      35.648  17.690  11.372  0.00  0.00     0.165 HD
HETATM   99  C   UNK N   1      34.502  14.926  10.286  0.00  0.00    -0.002 A 
HETATM  100  C   UNK N   1      35.970  15.047  12.197  0.00  0.00     0.030 A 
HETATM  101  C   UNK N   1      34.406  13.537  10.379  0.00  0.00     0.014 A 
HETATM  102  C   UNK N   1      35.117  12.895  11.408  0.00  0.00     0.001 A 
HETATM  103  C   UNK N   1      35.899  13.647  12.314  0.00  0.00     0.002 A 
ENDBRANCH  93  94
ENDBRANCH  92  93
BRANCH  92 104
HETATM  104  N   UNK N   1      35.294  15.140   7.011  0.00  0.00    -0.346 N 
HETATM  105  C   UNK N   1      35.754  13.884   6.743  0.00  0.00     0.241 C 
HETATM  106  O   UNK N   1      36.955  13.676   6.832  0.00  0.00    -0.271 OA
HETATM  107  H   UNK N   1      35.981  15.791   7.282  0.00  0.00     0.163 HD
BRANCH 105 108
HETATM  108  C   UNK N   1      34.856  12.740   6.337  0.00  0.00     0.176 C 
BRANCH 108 109
HETATM  109  C   UNK N   1      35.321  12.190   4.989  0.00  0.00     0.035 C 
BRANCH 109 110
HETATM  110  C   UNK N   1      35.189  13.230   3.892  0.00  0.00     0.004 C 
BRANCH 110 111
HETATM  111  C   UNK N   1      34.660  12.604   2.613  0.00  0.00     0.019 C 
BRANCH 111 112
HETATM  112  C   UNK N   1      35.376  13.169   1.397  0.00  0.00     0.111 C 
BRANCH 112 113
HETATM  113  N   UNK N   1      34.869  14.493   1.082  0.00  0.00    -0.430 N 
HETATM  114  H   UNK N   1      34.752  14.837   0.129  0.00  0.00     0.149 HD
HETATM  115  H   UNK N   1      34.618  15.111   1.853  0.00  0.00     0.149 HD
ENDBRANCH 112 113
ENDBRANCH 111 112
ENDBRANCH 110 111
ENDBRANCH 109 110
ENDBRANCH 108 109
BRANCH 108 116
HETATM  116  N   UNK N   1      34.956  11.698   7.334  0.00  0.00    -0.346 N 
HETATM  117  C   UNK N   1      33.895  10.986   7.794  0.00  0.00     0.240 C 
HETATM  118  O   UNK N   1      32.760  11.263   7.441  0.00  0.00    -0.271 OA
HETATM  119  H   UNK N   1      35.846  11.492   7.701  0.00  0.00     0.163 HD
BRANCH 117 120
HETATM  120  C   UNK N   1      34.135   9.854   8.753  0.00  0.00     0.167 C 
BRANCH 120 121
HETATM  121  C   UNK N   1      33.294   9.995  10.022  0.00  0.00     0.034 C 
BRANCH 121 122
HETATM  122  C   UNK N   1      32.407   8.793  10.293  0.00  0.00     0.004 C 
BRANCH 122 123
HETATM  123  C   UNK N   1      31.901   8.223   8.978  0.00  0.00     0.019 C 
BRANCH 123 124
HETATM  124  C   UNK N   1      30.672   7.357   9.200  0.00  0.00     0.111 C 
BRANCH 124 125
HETATM  125  N   UNK N   1      30.037   7.066   7.926  0.00  0.00    -0.430 N 
HETATM  126  H   UNK N   1      29.338   6.532   7.411  0.00  0.00     0.149 HD
HETATM  127  H   UNK N   1      30.498   7.663   7.238  0.00  0.00     0.149 HD
ENDBRANCH 124 125
ENDBRANCH 123 124
ENDBRANCH 122 123
ENDBRANCH 121 122
ENDBRANCH 120 121
BRANCH 120 128
HETATM  128  N   UNK N   1      35.544   9.674   9.067  0.00  0.00    -0.418 N 
HETATM  129  H   UNK N   1      36.502  10.021   9.040  0.00  0.00     0.150 HD
HETATM  130  H   UNK N   1      35.599   8.772   9.540  0.00  0.00     0.150 HD
ENDBRANCH 120 128
ENDBRANCH 117 120
ENDBRANCH 108 116
ENDBRANCH 105 108
ENDBRANCH  92 104
ENDBRANCH  89  92
ENDBRANCH  76  88
ENDBRANCH  73  76
ENDBRANCH   1  72
TORSDOF 52
ENDMDL
MODEL 4
REMARK VINA RESULT:      -6.8      3.384      7.742
REMARK WARNING: 32 MAX_TORS EXCEEDED!!!
REMARK  52 active torsions:
REMARK  status: ('A' for Active; 'I' for Inactive)
REMARK    1  A    between atoms: C_4  and  C_7 
REMARK    2  A    between atoms: C_7  and  C_8 
REMARK    3  A    between atoms: C_7  and  C_14 
REMARK    4  A    between atoms: C_14  and  C_15 
REMARK    5  A    between atoms: C_14  and  N_27 
REMARK       I    between atoms: C_15  and  N_17 
REMARK    6  A    between atoms: C_18  and  N_17 
REMARK    7  A    between atoms: C_18  and  C_19 
REMARK    8  A    between atoms: C_18  and  C_24 
REMARK    9  A    between atoms: C_19  and  C_20 
REMARK   10  A    between atoms: C_20  and  C_21 
REMARK   11  A    between atoms: C_21  and  C_22 
REMARK   12  A    between atoms: C_22  and  N_23 
REMARK       I    between atoms: C_24  and  N_26 
REMARK       I    between atoms: N_27  and  C_28 
REMARK   13  A    between atoms: C_28  and  C_30 
REMARK   14  A    between atoms: C_30  and  C_31 
REMARK   15  A    between atoms: C_30  and  N_41 
REMARK   16  A    between atoms: C_31  and  C_32 
REMARK       I    between atoms: N_41  and  C_42 
REMARK   17  A    between atoms: C_42  and  C_44 
REMARK   18  A    between atoms: C_44  and  C_45 
REMARK   19  A    between atoms: C_44  and  N_50 
REMARK   20  A    between atoms: C_45  and  C_46 
REMARK   21  A    between atoms: C_46  and  C_47 
REMARK   22  A    between atoms: C_47  and  C_48 
REMARK   23  A    between atoms: C_48  and  N_49 
REMARK       I    between atoms: N_50  and  C_51 
REMARK   24  A    between atoms: C_51  and  C_53 
REMARK   25  A    between atoms: C_53  and  C_54 
REMARK   26  A    between atoms: C_53  and  N_59 
REMARK   27  A    between atoms: C_54  and  C_55 
REMARK   28  A    between atoms: C_55  and  C_56 
REMARK   29  A    between atoms: C_56  and  C_57 
REMARK   30  A    between atoms: C_57  and  N_58 
REMARK       I    between atoms: N_59  and  C_60 
REMARK   31  A    between atoms: C_60  and  C_62 
REMARK   32  A    between atoms: C_62  and  C_63 
REMARK   33  A    between atoms: C_62  and  N_73 
REMARK   34  A    between atoms: C_63  and  C_64 
REMARK       I    between atoms: N_73  and  C_74 
REMARK   35  A    between atoms: C_74  and  C_76 
REMARK   36  A    between atoms: C_76  and  C_77 
REMARK   37  A    between atoms: C_76  and  N_87 
REMARK   38  A    between atoms: C_77  and  C_78 
REMARK       I    between atoms: N_87  and  C_88 
REMARK   39  A    between atoms: C_88  and  C_90 
REMARK   40  A    between atoms: C_90  and  C_91 
REMARK   41  A    between atoms: C_90  and  N_96 
REMARK   42  A    between atoms: C_91  and  C_92 
REMARK   43  A    between atoms: C_92  and  C_93 
REMARK   44  A    between atoms: C_93  and  C_94 
REMARK   45  A    between atoms: C_94  and  N_95 
REMARK       I    between atoms: N_96  and  C_97 
REMARK   46  A    between atoms: C_97  and  C_99 
REMARK   47  A    between atoms: C_99  and  C_100 
REMARK   48  A    between atoms: C_99  and  N_105 
REMARK   49  A    between atoms: C_100  and  C_101 
REMARK   50  A    between atoms: C_101  and  C_102 
REMARK   51  A    between atoms: C_102  and  C_103 
REMARK   52  A    between atoms: C_103  and  N_104 
ROOT
HETATM    1  C   UNK N   1      28.663  17.609   5.407  0.00  0.00     0.176 C 
ENDROOT
BRANCH   1   2
HETATM    2  C   UNK N   1      30.044  17.058   5.435  0.00  0.00     0.241 C 
HETATM    3  N   UNK N   1      30.501  16.602   6.630  0.00  0.00    -0.346 N 
HETATM    4  H   UNK N   1      29.829  16.497   7.341  0.00  0.00     0.163 HD
HETATM    5  O   UNK N   1      30.762  17.114   4.447  0.00  0.00    -0.271 OA
BRANCH   3   6
HETATM    6  C   UNK N   1      31.855  16.253   6.977  0.00  0.00     0.176 C 
BRANCH   6   7
HETATM    7  C   UNK N   1      31.958  15.201   8.048  0.00  0.00     0.241 C 
HETATM    8  N   UNK N   1      32.351  13.940   7.749  0.00  0.00    -0.346 N 
HETATM    9  H   UNK N   1      32.310  13.260   8.458  0.00  0.00     0.163 HD
HETATM   10  O   UNK N   1      31.650  15.466   9.197  0.00  0.00    -0.271 OA
BRANCH   8  11
HETATM   11  C   UNK N   1      32.825  13.540   6.452  0.00  0.00     0.181 C 
BRANCH  11  12
HETATM   12  C   UNK N   1      34.205  12.918   6.457  0.00  0.00     0.241 C 
HETATM   13  N   UNK N   1      34.548  11.749   7.095  0.00  0.00    -0.345 N 
HETATM   14  H   UNK N   1      35.493  11.495   6.978  0.00  0.00     0.163 HD
HETATM   15  O   UNK N   1      35.082  13.527   5.867  0.00  0.00    -0.271 OA
BRANCH  13  16
HETATM   16  C   UNK N   1      33.779  10.807   7.915  0.00  0.00     0.189 C 
BRANCH  16  17
HETATM   17  C   UNK N   1      33.973   9.302   7.642  0.00  0.00     0.083 C 
BRANCH  17  18
HETATM   18  C   UNK N   1      32.943   8.534   6.894  0.00  0.00    -0.047 A 
HETATM   19  C   UNK N   1      33.335   7.614   5.915  0.00  0.00     0.008 A 
HETATM   20  C   UNK N   1      32.392   7.106   5.030  0.00  0.00     0.001 A 
HETATM   21  C   UNK N   1      31.056   7.507   5.114  0.00  0.00     0.000 A 
HETATM   22  C   UNK N   1      30.662   8.421   6.091  0.00  0.00     0.001 A 
HETATM   23  C   UNK N   1      31.609   8.949   6.969  0.00  0.00     0.008 A 
ENDBRANCH  17  18
BRANCH  17  24
HETATM   24  C   UNK N   1      34.581   8.425   8.706  0.00  0.00    -0.047 A 
HETATM   25  C   UNK N   1      33.781   7.986   9.765  0.00  0.00     0.008 A 
HETATM   26  C   UNK N   1      34.353   7.332  10.861  0.00  0.00     0.001 A 
HETATM   27  C   UNK N   1      35.738   7.157  10.927  0.00  0.00     0.000 A 
HETATM   28  C   UNK N   1      36.550   7.613   9.888  0.00  0.00     0.001 A 
HETATM   29  C   UNK N   1      35.975   8.245   8.783  0.00  0.00     0.008 A 
ENDBRANCH  17  24
ENDBRANCH  16  17
BRANCH  16  30
HETATM   30  C   UNK N   1      33.243  11.185   9.288  0.00  0.00     0.242 C 
HETATM   31  O   UNK N   1      32.041  11.187   9.477  0.00  0.00    -0.271 OA
HETATM   32  N   UNK N   1      34.040  11.668  10.284  0.00  0.00    -0.346 N 
HETATM   33  H   UNK N   1      33.582  11.919  11.119  0.00  0.00     0.163 HD
BRANCH  32  34
HETATM   34  C   UNK N   1      35.479  11.860  10.267  0.00  0.00     0.176 C 
BRANCH  34  35
HETATM   35  C   UNK N   1      36.211  10.991  11.284  0.00  0.00     0.035 C 
BRANCH  35  36
HETATM   36  C   UNK N   1      35.356  10.635  12.489  0.00  0.00     0.004 C 
BRANCH  36  37
HETATM   37  C   UNK N   1      36.123  10.876  13.771  0.00  0.00     0.019 C 
BRANCH  37  38
HETATM   38  C   UNK N   1      37.333  11.749  13.500  0.00  0.00     0.111 C 
BRANCH  38  39
HETATM   39  N   UNK N   1      37.195  13.016  14.198  0.00  0.00    -0.430 N 
HETATM   40  H   UNK N   1      36.717  13.319  15.046  0.00  0.00     0.149 HD
HETATM   41  H   UNK N   1      37.689  13.777  13.731  0.00  0.00     0.149 HD
ENDBRANCH  38  39
ENDBRANCH  37  38
ENDBRANCH  36  37
ENDBRANCH  35  36
ENDBRANCH  34  35
BRANCH  34  42
HETATM   42  C   UNK N   1      35.873  13.304  10.246  0.00  0.00     0.238 C 
HETATM   43  O   UNK N   1      35.574  14.045  11.166  0.00  0.00    -0.271 OA
HETATM   44  N   UNK N   1      36.592  13.778   9.209  0.00  0.00    -0.368 N 
HETATM   45  H   UNK N   1      37.524  13.489   9.081  0.00  0.00     0.159 HD
HETATM   46  H   UNK N   1      36.184  14.414   8.577  0.00  0.00     0.159 HD
ENDBRANCH  34  42
ENDBRANCH  32  34
ENDBRANCH  16  30
ENDBRANCH  13  16
ENDBRANCH  11  12
BRANCH  11  47
HETATM   47  C   UNK N   1      31.757  12.954   5.487  0.00  0.00     0.075 C 
BRANCH  47  48
HETATM   48  C   UNK N   1      32.049  12.969   4.004  0.00  0.00    -0.028 A 
HETATM   49  C   UNK N   1      32.473  14.057   3.263  0.00  0.00     0.096 A 
HETATM   50  N   UNK N   1      32.658  13.697   1.967  0.00  0.00    -0.365 N 
HETATM   51  C   UNK N   1      32.347  12.400   1.893  0.00  0.00     0.042 A 
HETATM   52  H   UNK N   1      32.961  14.276   1.231  0.00  0.00     0.165 HD
HETATM   53  C   UNK N   1      31.956  11.914   3.109  0.00  0.00    -0.002 A 
HETATM   54  C   UNK N   1      32.405  11.599   0.753  0.00  0.00     0.030 A 
HETATM   55  C   UNK N   1      31.578  10.584   3.264  0.00  0.00     0.014 A 
HETATM   56  C   UNK N   1      31.623   9.743   2.135  0.00  0.00     0.001 A 
HETATM   57  C   UNK N   1      32.041  10.248   0.884  0.00  0.00     0.002 A 
ENDBRANCH  47  48
ENDBRANCH  11  47
ENDBRANCH   8  11
ENDBRANCH   6   7
BRANCH   6  58
HETATM   58  C   UNK N   1      32.844  17.410   6.921  0.00  0.00     0.035 C 
BRANCH  58  59
HETATM   59  C   UNK N   1      34.256  17.013   6.556  0.00  0.00     0.004 C 
BRANCH  59  60
HETATM   60  C   UNK N   1      34.958  16.589   7.834  0.00  0.00     0.019 C 
BRANCH  60  61
HETATM   61  C   UNK N   1      34.649  17.565   8.948  0.00  0.00     0.111 C 
BRANCH  61  62
HETATM   62  N   UNK N   1      34.458  16.836  10.188  0.00  0.00    -0.430 N 
HETATM   63  H   UNK N   1      35.174  16.504  10.834  0.00  0.00     0.149 HD
HETATM   64  H   UNK N   1      33.493  16.632  10.444  0.00  0.00     0.149 HD
ENDBRANCH  61  62
ENDBRANCH  60  61
ENDBRANCH  59  60
ENDBRANCH  58  59
ENDBRANCH   6  58
ENDBRANCH   3   6
ENDBRANCH   1   2
BRANCH   1  65
HETATM   65  C   UNK N   1      28.233  18.494   6.543  0.00  0.00     0.035 C 
BRANCH  65  66
HETATM   66  C   UNK N   1      28.045  17.617   7.776  0.00  0.00     0.004 C 
BRANCH  66  67
HETATM   67  C   UNK N   1      28.138  18.404   9.071  0.00  0.00     0.019 C 
BRANCH  67  68
HETATM   68  C   UNK N   1      29.497  18.227   9.711  0.00  0.00     0.111 C 
BRANCH  68  69
HETATM   69  N   UNK N   1      29.524  16.995  10.482  0.00  0.00    -0.430 N 
HETATM   70  H   UNK N   1      29.981  16.245  11.000  0.00  0.00     0.149 HD
HETATM   71  H   UNK N   1      28.538  16.737  10.531  0.00  0.00     0.149 HD
ENDBRANCH  68  69
ENDBRANCH  67  68
ENDBRANCH  66  67
ENDBRANCH  65  66
ENDBRANCH   1  65
BRANCH   1  72
HETATM   72  N   UNK N   1      27.748  17.415   4.304  0.00  0.00    -0.346 N 
HETATM   73  C   UNK N   1      27.024  16.292   4.036  0.00  0.00     0.241 C 
HETATM   74  O   UNK N   1      26.279  16.308   3.069  0.00  0.00    -0.271 OA
HETATM   75  H   UNK N   1      27.637  18.172   3.683  0.00  0.00     0.163 HD
BRANCH  73  76
HETATM   76  C   UNK N   1      27.047  15.048   4.912  0.00  0.00     0.181 C 
BRANCH  76  77
HETATM   77  C   UNK N   1      28.299  14.188   4.751  0.00  0.00     0.075 C 
BRANCH  77  78
HETATM   78  C   UNK N   1      28.514  13.713   3.344  0.00  0.00    -0.028 A 
HETATM   79  C   UNK N   1      28.946  14.456   2.247  0.00  0.00     0.096 A 
HETATM   80  N   UNK N   1      29.011  13.654   1.155  0.00  0.00    -0.365 N 
HETATM   81  C   UNK N   1      28.616  12.431   1.564  0.00  0.00     0.042 A 
HETATM   82  H   UNK N   1      29.290  13.914   0.247  0.00  0.00     0.165 HD
HETATM   83  C   UNK N   1      28.309  12.440   2.892  0.00  0.00    -0.002 A 
HETATM   84  C   UNK N   1      28.512  11.281   0.790  0.00  0.00     0.030 A 
HETATM   85  C   UNK N   1      27.868  11.293   3.555  0.00  0.00     0.014 A 
HETATM   86  C   UNK N   1      27.749  10.112   2.803  0.00  0.00     0.001 A 
HETATM   87  C   UNK N   1      28.071  10.104   1.426  0.00  0.00     0.002 A 
ENDBRANCH  77  78
ENDBRANCH  76  77
BRANCH  76  88
HETATM   88  N   UNK N   1      25.945  14.169   4.579  0.00  0.00    -0.346 N 
HETATM   89  C   UNK N   1      24.790  14.027   5.262  0.00  0.00     0.241 C 
HETATM   90  O   UNK N   1      24.042  13.115   4.954  0.00  0.00    -0.271 OA
HETATM   91  H   UNK N   1      26.049  13.620   3.769  0.00  0.00     0.163 HD
BRANCH  89  92
HETATM   92  C   UNK N   1      24.365  14.959   6.354  0.00  0.00     0.181 C 
BRANCH  92  93
HETATM   93  C   UNK N   1      23.114  14.451   7.058  0.00  0.00     0.075 C 
BRANCH  93  94
HETATM   94  C   UNK N   1      23.520  13.748   8.314  0.00  0.00    -0.028 A 
HETATM   95  C   UNK N   1      24.823  13.409   8.651  0.00  0.00     0.096 A 
HETATM   96  N   UNK N   1      24.840  12.748   9.830  0.00  0.00    -0.365 N 
HETATM   97  C   UNK N   1      23.557  12.672  10.234  0.00  0.00     0.042 A 
HETATM   98  H   UNK N   1      25.629  12.394  10.299  0.00  0.00     0.165 HD
HETATM   99  C   UNK N   1      22.728  13.279   9.335  0.00  0.00    -0.002 A 
HETATM  100  C   UNK N   1      23.085  12.067  11.391  0.00  0.00     0.030 A 
HETATM  101  C   UNK N   1      21.349  13.328   9.539  0.00  0.00     0.014 A 
HETATM  102  C   UNK N   1      20.833  12.725  10.700  0.00  0.00     0.001 A 
HETATM  103  C   UNK N   1      21.698  12.094  11.623  0.00  0.00     0.002 A 
ENDBRANCH  93  94
ENDBRANCH  92  93
BRANCH  92 104
HETATM  104  N   UNK N   1      24.393  16.356   5.943  0.00  0.00    -0.346 N 
HETATM  105  C   UNK N   1      23.438  17.089   5.303  0.00  0.00     0.241 C 
HETATM  106  O   UNK N   1      23.668  18.267   5.075  0.00  0.00    -0.271 OA
HETATM  107  H   UNK N   1      25.223  16.841   6.157  0.00  0.00     0.163 HD
BRANCH 105 108
HETATM  108  C   UNK N   1      22.108  16.520   4.869  0.00  0.00     0.176 C 
BRANCH 108 109
HETATM  109  C   UNK N   1      21.067  17.640   4.843  0.00  0.00     0.035 C 
BRANCH 109 110
HETATM  110  C   UNK N   1      20.830  18.143   3.431  0.00  0.00     0.004 C 
BRANCH 110 111
HETATM  111  C   UNK N   1      20.665  19.652   3.415  0.00  0.00     0.019 C 
BRANCH 111 112
HETATM  112  C   UNK N   1      21.387  20.263   2.225  0.00  0.00     0.111 C 
BRANCH 112 113
HETATM  113  N   UNK N   1      20.590  20.115   1.019  0.00  0.00    -0.430 N 
HETATM  114  H   UNK N   1      20.259  19.216   0.671  0.00  0.00     0.149 HD
HETATM  115  H   UNK N   1      20.350  20.955   0.492  0.00  0.00     0.149 HD
ENDBRANCH 112 113
ENDBRANCH 111 112
ENDBRANCH 110 111
ENDBRANCH 109 110
ENDBRANCH 108 109
BRANCH 108 116
HETATM  116  N   UNK N   1      22.252  15.975   3.538  0.00  0.00    -0.346 N 
HETATM  117  C   UNK N   1      21.708  14.797   3.140  0.00  0.00     0.240 C 
HETATM  118  O   UNK N   1      21.131  14.076   3.939  0.00  0.00    -0.271 OA
HETATM  119  H   UNK N   1      22.773  16.490   2.881  0.00  0.00     0.163 HD
BRANCH 117 120
HETATM  120  C   UNK N   1      21.834  14.382   1.701  0.00  0.00     0.167 C 
BRANCH 120 121
HETATM  121  C   UNK N   1      23.274  14.499   1.198  0.00  0.00     0.034 C 
BRANCH 121 122
HETATM  122  C   UNK N   1      23.742  13.279   0.425  0.00  0.00     0.004 C 
BRANCH 122 123
HETATM  123  C   UNK N   1      24.849  12.578   1.195  0.00  0.00     0.019 C 
BRANCH 123 124
HETATM  124  C   UNK N   1      24.443  11.159   1.558  0.00  0.00     0.111 C 
BRANCH 124 125
HETATM  125  N   UNK N   1      24.181  11.071   2.984  0.00  0.00    -0.430 N 
HETATM  126  H   UNK N   1      24.486  11.284   3.933  0.00  0.00     0.149 HD
HETATM  127  H   UNK N   1      23.295  10.573   3.078  0.00  0.00     0.149 HD
ENDBRANCH 124 125
ENDBRANCH 123 124
ENDBRANCH 122 123
ENDBRANCH 121 122
ENDBRANCH 120 121
BRANCH 120 128
HETATM  128  N   UNK N   1      20.909  15.090   0.830  0.00  0.00    -0.418 N 
HETATM  129  H   UNK N   1      20.403  15.943   0.592  0.00  0.00     0.150 HD
HETATM  130  H   UNK N   1      20.637  14.410   0.120  0.00  0.00     0.150 HD
ENDBRANCH 120 128
ENDBRANCH 117 120
ENDBRANCH 108 116
ENDBRANCH 105 108
ENDBRANCH  92 104
ENDBRANCH  89  92
ENDBRANCH  76  88
ENDBRANCH  73  76
ENDBRANCH   1  72
TORSDOF 52
ENDMDL
MODEL 5
REMARK VINA RESULT:      -6.8      1.879      3.053
REMARK WARNING: 32 MAX_TORS EXCEEDED!!!
REMARK  52 active torsions:
REMARK  status: ('A' for Active; 'I' for Inactive)
REMARK    1  A    between atoms: C_4  and  C_7 
REMARK    2  A    between atoms: C_7  and  C_8 
REMARK    3  A    between atoms: C_7  and  C_14 
REMARK    4  A    between atoms: C_14  and  C_15 
REMARK    5  A    between atoms: C_14  and  N_27 
REMARK       I    between atoms: C_15  and  N_17 
REMARK    6  A    between atoms: C_18  and  N_17 
REMARK    7  A    between atoms: C_18  and  C_19 
REMARK    8  A    between atoms: C_18  and  C_24 
REMARK    9  A    between atoms: C_19  and  C_20 
REMARK   10  A    between atoms: C_20  and  C_21 
REMARK   11  A    between atoms: C_21  and  C_22 
REMARK   12  A    between atoms: C_22  and  N_23 
REMARK       I    between atoms: C_24  and  N_26 
REMARK       I    between atoms: N_27  and  C_28 
REMARK   13  A    between atoms: C_28  and  C_30 
REMARK   14  A    between atoms: C_30  and  C_31 
REMARK   15  A    between atoms: C_30  and  N_41 
REMARK   16  A    between atoms: C_31  and  C_32 
REMARK       I    between atoms: N_41  and  C_42 
REMARK   17  A    between atoms: C_42  and  C_44 
REMARK   18  A    between atoms: C_44  and  C_45 
REMARK   19  A    between atoms: C_44  and  N_50 
REMARK   20  A    between atoms: C_45  and  C_46 
REMARK   21  A    between atoms: C_46  and  C_47 
REMARK   22  A    between atoms: C_47  and  C_48 
REMARK   23  A    between atoms: C_48  and  N_49 
REMARK       I    between atoms: N_50  and  C_51 
REMARK   24  A    between atoms: C_51  and  C_53 
REMARK   25  A    between atoms: C_53  and  C_54 
REMARK   26  A    between atoms: C_53  and  N_59 
REMARK   27  A    between atoms: C_54  and  C_55 
REMARK   28  A    between atoms: C_55  and  C_56 
REMARK   29  A    between atoms: C_56  and  C_57 
REMARK   30  A    between atoms: C_57  and  N_58 
REMARK       I    between atoms: N_59  and  C_60 
REMARK   31  A    between atoms: C_60  and  C_62 
REMARK   32  A    between atoms: C_62  and  C_63 
REMARK   33  A    between atoms: C_62  and  N_73 
REMARK   34  A    between atoms: C_63  and  C_64 
REMARK       I    between atoms: N_73  and  C_74 
REMARK   35  A    between atoms: C_74  and  C_76 
REMARK   36  A    between atoms: C_76  and  C_77 
REMARK   37  A    between atoms: C_76  and  N_87 
REMARK   38  A    between atoms: C_77  and  C_78 
REMARK       I    between atoms: N_87  and  C_88 
REMARK   39  A    between atoms: C_88  and  C_90 
REMARK   40  A    between atoms: C_90  and  C_91 
REMARK   41  A    between atoms: C_90  and  N_96 
REMARK   42  A    between atoms: C_91  and  C_92 
REMARK   43  A    between atoms: C_92  and  C_93 
REMARK   44  A    between atoms: C_93  and  C_94 
REMARK   45  A    between atoms: C_94  and  N_95 
REMARK       I    between atoms: N_96  and  C_97 
REMARK   46  A    between atoms: C_97  and  C_99 
REMARK   47  A    between atoms: C_99  and  C_100 
REMARK   48  A    between atoms: C_99  and  N_105 
REMARK   49  A    between atoms: C_100  and  C_101 
REMARK   50  A    between atoms: C_101  and  C_102 
REMARK   51  A    between atoms: C_102  and  C_103 
REMARK   52  A    between atoms: C_103  and  N_104 
ROOT
HETATM    1  C   UNK N   1      24.726  17.999   4.489  0.00  0.00     0.176 C 
ENDROOT
BRANCH   1   2
HETATM    2  C   UNK N   1      25.696  16.887   4.671  0.00  0.00     0.241 C 
HETATM    3  N   UNK N   1      26.013  16.159   3.569  0.00  0.00    -0.346 N 
HETATM    4  H   UNK N   1      25.727  16.532   2.704  0.00  0.00     0.163 HD
HETATM    5  O   UNK N   1      26.102  16.586   5.784  0.00  0.00    -0.271 OA
BRANCH   3   6
HETATM    6  C   UNK N   1      26.721  14.906   3.519  0.00  0.00     0.176 C 
BRANCH   6   7
HETATM    7  C   UNK N   1      27.838  14.877   2.511  0.00  0.00     0.241 C 
HETATM    8  N   UNK N   1      29.116  15.122   2.881  0.00  0.00    -0.346 N 
HETATM    9  H   UNK N   1      29.800  15.189   2.177  0.00  0.00     0.163 HD
HETATM   10  O   UNK N   1      27.594  14.666   1.335  0.00  0.00    -0.271 OA
BRANCH   8  11
HETATM   11  C   UNK N   1      29.532  15.288   4.248  0.00  0.00     0.181 C 
BRANCH  11  12
HETATM   12  C   UNK N   1      30.020  14.018   4.910  0.00  0.00     0.241 C 
HETATM   13  N   UNK N   1      31.326  13.589   4.942  0.00  0.00    -0.345 N 
HETATM   14  H   UNK N   1      31.455  12.742   5.429  0.00  0.00     0.163 HD
HETATM   15  O   UNK N   1      29.172  13.311   5.430  0.00  0.00    -0.271 OA
BRANCH  13  16
HETATM   16  C   UNK N   1      32.566  14.149   4.392  0.00  0.00     0.189 C 
BRANCH  16  17
HETATM   17  C   UNK N   1      33.879  13.842   5.139  0.00  0.00     0.083 C 
BRANCH  17  18
HETATM   18  C   UNK N   1      34.671  12.630   4.801  0.00  0.00    -0.047 A 
HETATM   19  C   UNK N   1      35.759  12.730   3.927  0.00  0.00     0.008 A 
HETATM   20  C   UNK N   1      36.323  11.577   3.394  0.00  0.00     0.001 A 
HETATM   21  C   UNK N   1      35.810  10.321   3.728  0.00  0.00     0.000 A 
HETATM   22  C   UNK N   1      34.729  10.218   4.602  0.00  0.00     0.001 A 
HETATM   23  C   UNK N   1      34.146  11.374   5.123  0.00  0.00     0.008 A 
ENDBRANCH  17  18
BRANCH  17  24
HETATM   24  C   UNK N   1      33.974  14.111   6.618  0.00  0.00    -0.047 A 
HETATM   25  C   UNK N   1      35.229  14.346   7.188  0.00  0.00     0.008 A 
HETATM   26  C   UNK N   1      35.375  14.412   8.577  0.00  0.00     0.001 A 
HETATM   27  C   UNK N   1      34.273  14.195   9.408  0.00  0.00     0.000 A 
HETATM   28  C   UNK N   1      33.019  13.935   8.852  0.00  0.00     0.001 A 
HETATM   29  C   UNK N   1      32.870  13.892   7.464  0.00  0.00     0.008 A 
ENDBRANCH  17  24
ENDBRANCH  16  17
BRANCH  16  30
HETATM   30  C   UNK N   1      32.692  14.540   2.927  0.00  0.00     0.242 C 
HETATM   31  O   UNK N   1      32.871  15.709   2.638  0.00  0.00    -0.271 OA
HETATM   32  N   UNK N   1      32.466  13.663   1.906  0.00  0.00    -0.346 N 
HETATM   33  H   UNK N   1      32.538  14.033   0.997  0.00  0.00     0.163 HD
BRANCH  32  34
HETATM   34  C   UNK N   1      32.134  12.252   1.994  0.00  0.00     0.176 C 
BRANCH  34  35
HETATM   35  C   UNK N   1      33.106  11.361   1.228  0.00  0.00     0.035 C 
BRANCH  35  36
HETATM   36  C   UNK N   1      34.104  12.145   0.394  0.00  0.00     0.004 C 
BRANCH  36  37
HETATM   37  C   UNK N   1      33.642  12.228  -1.045  0.00  0.00     0.019 C 
BRANCH  37  38
HETATM   38  C   UNK N   1      34.725  12.853  -1.906  0.00  0.00     0.111 C 
BRANCH  38  39
HETATM   39  N   UNK N   1      34.203  14.032  -2.576  0.00  0.00    -0.430 N 
HETATM   40  H   UNK N   1      34.300  14.426  -3.511  0.00  0.00     0.149 HD
HETATM   41  H   UNK N   1      33.605  14.594  -1.971  0.00  0.00     0.149 HD
ENDBRANCH  38  39
ENDBRANCH  37  38
ENDBRANCH  36  37
ENDBRANCH  35  36
ENDBRANCH  34  35
BRANCH  34  42
HETATM   42  C   UNK N   1      30.681  11.981   1.758  0.00  0.00     0.238 C 
HETATM   43  O   UNK N   1      29.975  11.547   2.652  0.00  0.00    -0.271 OA
HETATM   44  N   UNK N   1      30.146  12.249   0.551  0.00  0.00    -0.368 N 
HETATM   45  H   UNK N   1      30.054  13.181   0.247  0.00  0.00     0.159 HD
HETATM   46  H   UNK N   1      29.847  11.513  -0.030  0.00  0.00     0.159 HD
ENDBRANCH  34  42
ENDBRANCH  32  34
ENDBRANCH  16  30
ENDBRANCH  13  16
ENDBRANCH  11  12
BRANCH  11  47
HETATM   47  C   UNK N   1      30.262  16.619   4.580  0.00  0.00     0.075 C 
BRANCH  47  48
HETATM   48  C   UNK N   1      30.611  16.902   6.023  0.00  0.00    -0.028 A 
HETATM   49  C   UNK N   1      29.744  16.858   7.100  0.00  0.00     0.096 A 
HETATM   50  N   UNK N   1      30.409  17.144   8.248  0.00  0.00    -0.365 N 
HETATM   51  C   UNK N   1      31.677  17.372   7.897  0.00  0.00     0.042 A 
HETATM   52  H   UNK N   1      30.032  17.176   9.157  0.00  0.00     0.165 HD
HETATM   53  C   UNK N   1      31.847  17.250   6.546  0.00  0.00    -0.002 A 
HETATM   54  C   UNK N   1      32.730  17.689   8.754  0.00  0.00     0.030 A 
HETATM   55  C   UNK N   1      33.090  17.453   5.956  0.00  0.00     0.014 A 
HETATM   56  C   UNK N   1      34.179  17.775   6.790  0.00  0.00     0.001 A 
HETATM   57  C   UNK N   1      34.000  17.886   8.186  0.00  0.00     0.002 A 
ENDBRANCH  47  48
ENDBRANCH  11  47
ENDBRANCH   8  11
ENDBRANCH   6   7
BRANCH   6  58
HETATM   58  C   UNK N   1      25.855  13.677   3.762  0.00  0.00     0.035 C 
BRANCH  58  59
HETATM   59  C   UNK N   1      26.536  12.359   3.469  0.00  0.00     0.004 C 
BRANCH  59  60
HETATM   60  C   UNK N   1      25.765  11.684   2.348  0.00  0.00     0.019 C 
BRANCH  60  61
HETATM   61  C   UNK N   1      26.719  11.198   1.278  0.00  0.00     0.111 C 
BRANCH  61  62
HETATM   62  N   UNK N   1      26.266   9.914   0.777  0.00  0.00    -0.430 N 
HETATM   63  H   UNK N   1      26.766   9.272   0.163  0.00  0.00     0.149 HD
HETATM   64  H   UNK N   1      25.337   9.618   1.076  0.00  0.00     0.149 HD
ENDBRANCH  61  62
ENDBRANCH  60  61
ENDBRANCH  59  60
ENDBRANCH  58  59
ENDBRANCH   6  58
ENDBRANCH   3   6
ENDBRANCH   1   2
BRANCH   1  65
HETATM   65  C   UNK N   1      24.682  18.685   3.152  0.00  0.00     0.035 C 
BRANCH  65  66
HETATM   66  C   UNK N   1      24.932  20.172   3.379  0.00  0.00     0.004 C 
BRANCH  66  67
HETATM   67  C   UNK N   1      26.394  20.549   3.215  0.00  0.00     0.019 C 
BRANCH  67  68
HETATM   68  C   UNK N   1      27.118  20.479   4.541  0.00  0.00     0.111 C 
BRANCH  68  69
HETATM   69  N   UNK N   1      28.306  19.650   4.413  0.00  0.00    -0.430 N 
HETATM   70  H   UNK N   1      28.923  18.997   3.932  0.00  0.00     0.149 HD
HETATM   71  H   UNK N   1      28.793  19.815   5.295  0.00  0.00     0.149 HD
ENDBRANCH  68  69
ENDBRANCH  67  68
ENDBRANCH  66  67
ENDBRANCH  65  66
ENDBRANCH   1  65
BRANCH   1  72
HETATM   72  N   UNK N   1      23.763  18.393   5.493  0.00  0.00    -0.346 N 
HETATM   73  C   UNK N   1      22.528  17.853   5.691  0.00  0.00     0.241 C 
HETATM   74  O   UNK N   1      21.850  18.294   6.606  0.00  0.00    -0.271 OA
HETATM   75  H   UNK N   1      24.027  19.126   6.095  0.00  0.00     0.163 HD
BRANCH  73  76
HETATM   76  C   UNK N   1      21.978  16.689   4.878  0.00  0.00     0.181 C 
BRANCH  76  77
HETATM   77  C   UNK N   1      21.467  17.077   3.492  0.00  0.00     0.075 C 
BRANCH  77  78
HETATM   78  C   UNK N   1      21.004  15.903   2.682  0.00  0.00    -0.028 A 
HETATM   79  C   UNK N   1      19.704  15.419   2.544  0.00  0.00     0.096 A 
HETATM   80  N   UNK N   1      19.708  14.339   1.722  0.00  0.00    -0.365 N 
HETATM   81  C   UNK N   1      20.993  14.148   1.362  0.00  0.00     0.042 A 
HETATM   82  H   UNK N   1      18.929  13.804   1.446  0.00  0.00     0.165 HD
HETATM   83  C   UNK N   1      21.802  15.086   1.931  0.00  0.00    -0.002 A 
HETATM   84  C   UNK N   1      21.492  13.151   0.531  0.00  0.00     0.030 A 
HETATM   85  C   UNK N   1      23.181  15.100   1.716  0.00  0.00     0.014 A 
HETATM   86  C   UNK N   1      23.720  14.106   0.882  0.00  0.00     0.001 A 
HETATM   87  C   UNK N   1      22.880  13.135   0.290  0.00  0.00     0.002 A 
ENDBRANCH  77  78
ENDBRANCH  76  77
BRANCH  76  88
HETATM   88  N   UNK N   1      20.838  16.095   5.545  0.00  0.00    -0.346 N 
HETATM   89  C   UNK N   1      20.755  14.844   6.042  0.00  0.00     0.241 C 
HETATM   90  O   UNK N   1      19.667  14.436   6.410  0.00  0.00    -0.271 OA
HETATM   91  H   UNK N   1      20.041  16.664   5.646  0.00  0.00     0.163 HD
BRANCH  89  92
HETATM   92  C   UNK N   1      21.944  13.946   6.203  0.00  0.00     0.181 C 
BRANCH  92  93
HETATM   93  C   UNK N   1      23.060  14.639   6.972  0.00  0.00     0.075 C 
BRANCH  93  94
HETATM   94  C   UNK N   1      23.432  13.793   8.147  0.00  0.00    -0.028 A 
HETATM   95  C   UNK N   1      24.696  13.271   8.384  0.00  0.00     0.096 A 
HETATM   96  N   UNK N   1      24.685  12.519   9.508  0.00  0.00    -0.365 N 
HETATM   97  C   UNK N   1      23.423  12.570   9.977  0.00  0.00     0.042 A 
HETATM   98  H   UNK N   1      25.444  12.035   9.904  0.00  0.00     0.165 HD
HETATM   99  C   UNK N   1      22.636  13.343   9.173  0.00  0.00    -0.002 A 
HETATM  100  C   UNK N   1      22.933  11.935  11.111  0.00  0.00     0.030 A 
HETATM  101  C   UNK N   1      21.285  13.544   9.458  0.00  0.00     0.014 A 
HETATM  102  C   UNK N   1      20.752  12.918  10.599  0.00  0.00     0.001 A 
HETATM  103  C   UNK N   1      21.572  12.113  11.422  0.00  0.00     0.002 A 
ENDBRANCH  93  94
ENDBRANCH  92  93
BRANCH  92 104
HETATM  104  N   UNK N   1      22.295  13.254   4.970  0.00  0.00    -0.346 N 
HETATM  105  C   UNK N   1      22.043  11.966   4.599  0.00  0.00     0.241 C 
HETATM  106  O   UNK N   1      22.412  11.600   3.493  0.00  0.00    -0.271 OA
HETATM  107  H   UNK N   1      22.785  13.794   4.309  0.00  0.00     0.163 HD
BRANCH 105 108
HETATM  108  C   UNK N   1      21.325  10.973   5.482  0.00  0.00     0.176 C 
BRANCH 108 109
HETATM  109  C   UNK N   1      19.959  10.656   4.874  0.00  0.00     0.035 C 
BRANCH 109 110
HETATM  110  C   UNK N   1      19.283  11.908   4.347  0.00  0.00     0.004 C 
BRANCH 110 111
HETATM  111  C   UNK N   1      18.202  11.556   3.340  0.00  0.00     0.019 C 
BRANCH 111 112
HETATM  112  C   UNK N   1      18.796  10.841   2.137  0.00  0.00     0.111 C 
BRANCH 112 113
HETATM  113  N   UNK N   1      18.154  11.291   0.914  0.00  0.00    -0.430 N 
HETATM  114  H   UNK N   1      18.444  10.991  -0.016  0.00  0.00     0.149 HD
HETATM  115  H   UNK N   1      17.372  11.943   0.989  0.00  0.00     0.149 HD
ENDBRANCH 112 113
ENDBRANCH 111 112
ENDBRANCH 110 111
ENDBRANCH 109 110
ENDBRANCH 108 109
BRANCH 108 116
HETATM  116  N   UNK N   1      22.110   9.761   5.545  0.00  0.00    -0.346 N 
HETATM  117  C   UNK N   1      23.039   9.509   6.502  0.00  0.00     0.240 C 
HETATM  118  O   UNK N   1      23.329  10.361   7.327  0.00  0.00    -0.271 OA
HETATM  119  H   UNK N   1      21.960   9.076   4.854  0.00  0.00     0.163 HD
BRANCH 117 120
HETATM  120  C   UNK N   1      23.718   8.169   6.529  0.00  0.00     0.167 C 
BRANCH 120 121
HETATM  121  C   UNK N   1      25.173   8.257   6.067  0.00  0.00     0.034 C 
BRANCH 121 122
HETATM  122  C   UNK N   1      25.335   8.923   4.712  0.00  0.00     0.004 C 
BRANCH 122 123
HETATM  123  C   UNK N   1      26.530   8.326   3.987  0.00  0.00     0.019 C 
BRANCH 123 124
HETATM  124  C   UNK N   1      27.808   9.066   4.348  0.00  0.00     0.111 C 
BRANCH 124 125
HETATM  125  N   UNK N   1      28.816   8.833   3.329  0.00  0.00    -0.430 N 
HETATM  126  H   UNK N   1      29.202   9.090   2.421  0.00  0.00     0.149 HD
HETATM  127  H   UNK N   1      29.401   8.074   3.679  0.00  0.00     0.149 HD
ENDBRANCH 124 125
ENDBRANCH 123 124
ENDBRANCH 122 123
ENDBRANCH 121 122
ENDBRANCH 120 121
BRANCH 120 128
HETATM  128  N   UNK N   1      22.986   7.156   5.785  0.00  0.00    -0.418 N 
HETATM  129  H   UNK N   1      22.905   6.553   4.966  0.00  0.00     0.150 HD
HETATM  130  H   UNK N   1      22.165   6.948   6.353  0.00  0.00     0.150 HD
ENDBRANCH 120 128
ENDBRANCH 117 120
ENDBRANCH 108 116
ENDBRANCH 105 108
ENDBRANCH  92 104
ENDBRANCH  89  92
ENDBRANCH  76  88
ENDBRANCH  73  76
ENDBRANCH   1  72
TORSDOF 52
ENDMDL
MODEL 6
REMARK VINA RESULT:      -6.8      3.512      7.714
REMARK WARNING: 32 MAX_TORS EXCEEDED!!!
REMARK  52 active torsions:
REMARK  status: ('A' for Active; 'I' for Inactive)
REMARK    1  A    between atoms: C_4  and  C_7 
REMARK    2  A    between atoms: C_7  and  C_8 
REMARK    3  A    between atoms: C_7  and  C_14 
REMARK    4  A    between atoms: C_14  and  C_15 
REMARK    5  A    between atoms: C_14  and  N_27 
REMARK       I    between atoms: C_15  and  N_17 
REMARK    6  A    between atoms: C_18  and  N_17 
REMARK    7  A    between atoms: C_18  and  C_19 
REMARK    8  A    between atoms: C_18  and  C_24 
REMARK    9  A    between atoms: C_19  and  C_20 
REMARK   10  A    between atoms: C_20  and  C_21 
REMARK   11  A    between atoms: C_21  and  C_22 
REMARK   12  A    between atoms: C_22  and  N_23 
REMARK       I    between atoms: C_24  and  N_26 
REMARK       I    between atoms: N_27  and  C_28 
REMARK   13  A    between atoms: C_28  and  C_30 
REMARK   14  A    between atoms: C_30  and  C_31 
REMARK   15  A    between atoms: C_30  and  N_41 
REMARK   16  A    between atoms: C_31  and  C_32 
REMARK       I    between atoms: N_41  and  C_42 
REMARK   17  A    between atoms: C_42  and  C_44 
REMARK   18  A    between atoms: C_44  and  C_45 
REMARK   19  A    between atoms: C_44  and  N_50 
REMARK   20  A    between atoms: C_45  and  C_46 
REMARK   21  A    between atoms: C_46  and  C_47 
REMARK   22  A    between atoms: C_47  and  C_48 
REMARK   23  A    between atoms: C_48  and  N_49 
REMARK       I    between atoms: N_50  and  C_51 
REMARK   24  A    between atoms: C_51  and  C_53 
REMARK   25  A    between atoms: C_53  and  C_54 
REMARK   26  A    between atoms: C_53  and  N_59 
REMARK   27  A    between atoms: C_54  and  C_55 
REMARK   28  A    between atoms: C_55  and  C_56 
REMARK   29  A    between atoms: C_56  and  C_57 
REMARK   30  A    between atoms: C_57  and  N_58 
REMARK       I    between atoms: N_59  and  C_60 
REMARK   31  A    between atoms: C_60  and  C_62 
REMARK   32  A    between atoms: C_62  and  C_63 
REMARK   33  A    between atoms: C_62  and  N_73 
REMARK   34  A    between atoms: C_63  and  C_64 
REMARK       I    between atoms: N_73  and  C_74 
REMARK   35  A    between atoms: C_74  and  C_76 
REMARK   36  A    between atoms: C_76  and  C_77 
REMARK   37  A    between atoms: C_76  and  N_87 
REMARK   38  A    between atoms: C_77  and  C_78 
REMARK       I    between atoms: N_87  and  C_88 
REMARK   39  A    between atoms: C_88  and  C_90 
REMARK   40  A    between atoms: C_90  and  C_91 
REMARK   41  A    between atoms: C_90  and  N_96 
REMARK   42  A    between atoms: C_91  and  C_92 
REMARK   43  A    between atoms: C_92  and  C_93 
REMARK   44  A    between atoms: C_93  and  C_94 
REMARK   45  A    between atoms: C_94  and  N_95 
REMARK       I    between atoms: N_96  and  C_97 
REMARK   46  A    between atoms: C_97  and  C_99 
REMARK   47  A    between atoms: C_99  and  C_100 
REMARK   48  A    between atoms: C_99  and  N_105 
REMARK   49  A    between atoms: C_100  and  C_101 
REMARK   50  A    between atoms: C_101  and  C_102 
REMARK   51  A    between atoms: C_102  and  C_103 
REMARK   52  A    between atoms: C_103  and  N_104 
ROOT
HETATM    1  C   UNK N   1      28.644  17.416   4.966  0.00  0.00     0.176 C 
ENDROOT
BRANCH   1   2
HETATM    2  C   UNK N   1      30.055  17.033   5.239  0.00  0.00     0.241 C 
HETATM    3  N   UNK N   1      30.366  16.698   6.518  0.00  0.00    -0.346 N 
HETATM    4  H   UNK N   1      29.606  16.554   7.127  0.00  0.00     0.163 HD
HETATM    5  O   UNK N   1      30.907  17.118   4.367  0.00  0.00    -0.271 OA
BRANCH   3   6
HETATM    6  C   UNK N   1      31.679  16.529   7.086  0.00  0.00     0.176 C 
BRANCH   6   7
HETATM    7  C   UNK N   1      31.735  15.515   8.196  0.00  0.00     0.241 C 
HETATM    8  N   UNK N   1      32.315  14.306   8.006  0.00  0.00    -0.346 N 
HETATM    9  H   UNK N   1      32.244  13.638   8.725  0.00  0.00     0.163 HD
HETATM   10  O   UNK N   1      31.224  15.760   9.275  0.00  0.00    -0.271 OA
BRANCH   8  11
HETATM   11  C   UNK N   1      33.029  13.944   6.811  0.00  0.00     0.181 C 
BRANCH  11  12
HETATM   12  C   UNK N   1      34.476  13.566   7.041  0.00  0.00     0.241 C 
HETATM   13  N   UNK N   1      34.910  12.402   7.630  0.00  0.00    -0.345 N 
HETATM   14  H   UNK N   1      35.891  12.325   7.685  0.00  0.00     0.163 HD
HETATM   15  O   UNK N   1      35.316  14.381   6.696  0.00  0.00    -0.271 OA
BRANCH  13  16
HETATM   16  C   UNK N   1      34.195  11.251   8.192  0.00  0.00     0.189 C 
BRANCH  16  17
HETATM   17  C   UNK N   1      34.714   9.844   7.832  0.00  0.00     0.083 C 
BRANCH  17  18
HETATM   18  C   UNK N   1      34.093   9.075   6.721  0.00  0.00    -0.047 A 
HETATM   19  C   UNK N   1      32.708   9.125   6.529  0.00  0.00     0.008 A 
HETATM   20  C   UNK N   1      32.096   8.206   5.685  0.00  0.00     0.001 A 
HETATM   21  C   UNK N   1      32.857   7.236   5.027  0.00  0.00     0.000 A 
HETATM   22  C   UNK N   1      34.238   7.187   5.214  0.00  0.00     0.001 A 
HETATM   23  C   UNK N   1      34.853   8.094   6.076  0.00  0.00     0.008 A 
ENDBRANCH  17  18
BRANCH  17  24
HETATM   24  C   UNK N   1      35.126   8.900   8.931  0.00  0.00    -0.047 A 
HETATM   25  C   UNK N   1      36.487   8.703   9.184  0.00  0.00     0.008 A 
HETATM   26  C   UNK N   1      36.906   7.699  10.063  0.00  0.00     0.001 A 
HETATM   27  C   UNK N   1      35.967   6.853  10.659  0.00  0.00     0.000 A 
HETATM   28  C   UNK N   1      34.607   7.024  10.395  0.00  0.00     0.001 A 
HETATM   29  C   UNK N   1      34.188   8.041   9.535  0.00  0.00     0.008 A 
ENDBRANCH  17  24
ENDBRANCH  16  17
BRANCH  16  30
HETATM   30  C   UNK N   1      33.358  11.363   9.457  0.00  0.00     0.242 C 
HETATM   31  O   UNK N   1      32.149  11.244   9.382  0.00  0.00    -0.271 OA
HETATM   32  N   UNK N   1      33.883  11.739  10.660  0.00  0.00    -0.346 N 
HETATM   33  H   UNK N   1      33.242  11.817  11.403  0.00  0.00     0.163 HD
BRANCH  32  34
HETATM   34  C   UNK N   1      35.267  12.038  10.979  0.00  0.00     0.176 C 
BRANCH  34  35
HETATM   35  C   UNK N   1      35.903  11.008  11.906  0.00  0.00     0.035 C 
BRANCH  35  36
HETATM   36  C   UNK N   1      34.882  10.159  12.644  0.00  0.00     0.004 C 
BRANCH  36  37
HETATM   37  C   UNK N   1      35.575   9.092  13.465  0.00  0.00     0.019 C 
BRANCH  37  38
HETATM   38  C   UNK N   1      37.060   9.389  13.559  0.00  0.00     0.111 C 
BRANCH  38  39
HETATM   39  N   UNK N   1      37.811   8.146  13.600  0.00  0.00    -0.430 N 
HETATM   40  H   UNK N   1      38.046   7.427  12.916  0.00  0.00     0.149 HD
HETATM   41  H   UNK N   1      38.188   7.945  14.527  0.00  0.00     0.149 HD
ENDBRANCH  38  39
ENDBRANCH  37  38
ENDBRANCH  36  37
ENDBRANCH  35  36
ENDBRANCH  34  35
BRANCH  34  42
HETATM   42  C   UNK N   1      35.480  13.471  11.358  0.00  0.00     0.238 C 
HETATM   43  O   UNK N   1      34.561  14.143  11.794  0.00  0.00    -0.271 OA
HETATM   44  N   UNK N   1      36.709  14.009  11.240  0.00  0.00    -0.368 N 
HETATM   45  H   UNK N   1      37.438  13.712  11.831  0.00  0.00     0.159 HD
HETATM   46  H   UNK N   1      36.880  14.702  10.561  0.00  0.00     0.159 HD
ENDBRANCH  34  42
ENDBRANCH  32  34
ENDBRANCH  16  30
ENDBRANCH  13  16
ENDBRANCH  11  12
BRANCH  11  47
HETATM   47  C   UNK N   1      32.220  13.150   5.748  0.00  0.00     0.075 C 
BRANCH  47  48
HETATM   48  C   UNK N   1      32.586  13.328   4.292  0.00  0.00    -0.028 A 
HETATM   49  C   UNK N   1      32.989  14.503   3.687  0.00  0.00     0.096 A 
HETATM   50  N   UNK N   1      33.259  14.285   2.374  0.00  0.00    -0.365 N 
HETATM   51  C   UNK N   1      33.020  12.990   2.156  0.00  0.00     0.042 A 
HETATM   52  H   UNK N   1      33.569  14.949   1.717  0.00  0.00     0.165 HD
HETATM   53  C   UNK N   1      32.593  12.366   3.295  0.00  0.00    -0.002 A 
HETATM   54  C   UNK N   1      33.177  12.310   0.948  0.00  0.00     0.030 A 
HETATM   55  C   UNK N   1      32.277  11.011   3.297  0.00  0.00     0.014 A 
HETATM   56  C   UNK N   1      32.423  10.290   2.095  0.00  0.00     0.001 A 
HETATM   57  C   UNK N   1      32.877  10.938   0.926  0.00  0.00     0.002 A 
ENDBRANCH  47  48
ENDBRANCH  11  47
ENDBRANCH   8  11
ENDBRANCH   6   7
BRANCH   6  58
HETATM   58  C   UNK N   1      32.515  17.801   7.145  0.00  0.00     0.035 C 
BRANCH  58  59
HETATM   59  C   UNK N   1      34.009  17.573   7.112  0.00  0.00     0.004 C 
BRANCH  59  60
HETATM   60  C   UNK N   1      34.563  17.967   8.470  0.00  0.00     0.019 C 
BRANCH  60  61
HETATM   61  C   UNK N   1      34.884  16.729   9.281  0.00  0.00     0.111 C 
BRANCH  61  62
HETATM   62  N   UNK N   1      34.942  17.078  10.688  0.00  0.00    -0.430 N 
HETATM   63  H   UNK N   1      35.675  17.594  11.174  0.00  0.00     0.149 HD
HETATM   64  H   UNK N   1      34.155  16.771  11.259  0.00  0.00     0.149 HD
ENDBRANCH  61  62
ENDBRANCH  60  61
ENDBRANCH  59  60
ENDBRANCH  58  59
ENDBRANCH   6  58
ENDBRANCH   3   6
ENDBRANCH   1   2
BRANCH   1  65
HETATM   65  C   UNK N   1      28.028  18.491   5.817  0.00  0.00     0.035 C 
BRANCH  65  66
HETATM   66  C   UNK N   1      27.646  19.652   4.904  0.00  0.00     0.004 C 
BRANCH  66  67
HETATM   67  C   UNK N   1      26.675  20.616   5.564  0.00  0.00     0.019 C 
BRANCH  67  68
HETATM   68  C   UNK N   1      27.129  20.960   6.965  0.00  0.00     0.111 C 
BRANCH  68  69
HETATM   69  N   UNK N   1      25.996  20.930   7.874  0.00  0.00    -0.430 N 
HETATM   70  H   UNK N   1      25.400  21.304   8.612  0.00  0.00     0.149 HD
HETATM   71  H   UNK N   1      25.548  20.041   7.648  0.00  0.00     0.149 HD
ENDBRANCH  68  69
ENDBRANCH  67  68
ENDBRANCH  66  67
ENDBRANCH  65  66
ENDBRANCH   1  65
BRANCH   1  72
HETATM   72  N   UNK N   1      27.867  16.879   3.871  0.00  0.00    -0.346 N 
HETATM   73  C   UNK N   1      27.299  15.642   3.807  0.00  0.00     0.241 C 
HETATM   74  O   UNK N   1      26.654  15.358   2.811  0.00  0.00    -0.271 OA
HETATM   75  H   UNK N   1      27.735  17.467   3.092  0.00  0.00     0.163 HD
BRANCH  73  76
HETATM   76  C   UNK N   1      27.372  14.624   4.937  0.00  0.00     0.181 C 
BRANCH  76  77
HETATM   77  C   UNK N   1      28.656  13.797   4.955  0.00  0.00     0.075 C 
BRANCH  77  78
HETATM   78  C   UNK N   1      28.537  12.501   4.207  0.00  0.00    -0.028 A 
HETATM   79  C   UNK N   1      28.123  11.265   4.700  0.00  0.00     0.096 A 
HETATM   80  N   UNK N   1      28.154  10.347   3.702  0.00  0.00    -0.365 N 
HETATM   81  C   UNK N   1      28.590  11.000   2.605  0.00  0.00     0.042 A 
HETATM   82  H   UNK N   1      27.908   9.395   3.766  0.00  0.00     0.165 HD
HETATM   83  C   UNK N   1      28.829  12.312   2.886  0.00  0.00    -0.002 A 
HETATM   84  C   UNK N   1      28.792  10.469   1.337  0.00  0.00     0.030 A 
HETATM   85  C   UNK N   1      29.294  13.201   1.916  0.00  0.00     0.014 A 
HETATM   86  C   UNK N   1      29.511  12.698   0.622  0.00  0.00     0.001 A 
HETATM   87  C   UNK N   1      29.260  11.337   0.332  0.00  0.00     0.002 A 
ENDBRANCH  77  78
ENDBRANCH  76  77
BRANCH  76  88
HETATM   88  N   UNK N   1      26.303  13.654   4.819  0.00  0.00    -0.346 N 
HETATM   89  C   UNK N   1      25.245  13.513   5.644  0.00  0.00     0.241 C 
HETATM   90  O   UNK N   1      24.532  12.533   5.512  0.00  0.00    -0.271 OA
HETATM   91  H   UNK N   1      26.354  13.033   4.056  0.00  0.00     0.163 HD
BRANCH  89  92
HETATM   92  C   UNK N   1      24.881  14.523   6.688  0.00  0.00     0.181 C 
BRANCH  92  93
HETATM   93  C   UNK N   1      23.573  14.158   7.377  0.00  0.00     0.075 C 
BRANCH  93  94
HETATM   94  C   UNK N   1      23.882  13.578   8.720  0.00  0.00    -0.028 A 
HETATM   95  C   UNK N   1      25.157  13.404   9.238  0.00  0.00     0.096 A 
HETATM   96  N   UNK N   1      25.088  12.818  10.455  0.00  0.00    -0.365 N 
HETATM   97  C   UNK N   1      23.778  12.626  10.702  0.00  0.00     0.042 A 
HETATM   98  H   UNK N   1      25.842  12.581  11.042  0.00  0.00     0.165 HD
HETATM   99  C   UNK N   1      23.015  13.084   9.666  0.00  0.00    -0.002 A 
HETATM  100  C   UNK N   1      23.224  12.041  11.832  0.00  0.00     0.030 A 
HETATM  101  C   UNK N   1      21.624  12.993   9.695  0.00  0.00     0.014 A 
HETATM  102  C   UNK N   1      21.025  12.406  10.824  0.00  0.00     0.001 A 
HETATM  103  C   UNK N   1      21.822  11.928  11.889  0.00  0.00     0.002 A 
ENDBRANCH  93  94
ENDBRANCH  92  93
BRANCH  92 104
HETATM  104  N   UNK N   1      25.046  15.894   6.225  0.00  0.00    -0.346 N 
HETATM  105  C   UNK N   1      24.258  16.624   5.385  0.00  0.00     0.241 C 
HETATM  106  O   UNK N   1      24.578  17.780   5.149  0.00  0.00    -0.271 OA
HETATM  107  H   UNK N   1      25.842  16.361   6.567  0.00  0.00     0.163 HD
BRANCH 105 108
HETATM  108  C   UNK N   1      23.008  16.078   4.736  0.00  0.00     0.176 C 
BRANCH 108 109
HETATM  109  C   UNK N   1      21.908  17.138   4.794  0.00  0.00     0.035 C 
BRANCH 109 110
HETATM  110  C   UNK N   1      21.756  17.852   3.464  0.00  0.00     0.004 C 
BRANCH 110 111
HETATM  111  C   UNK N   1      20.315  17.806   2.987  0.00  0.00     0.019 C 
BRANCH 111 112
HETATM  112  C   UNK N   1      20.201  17.039   1.679  0.00  0.00     0.111 C 
BRANCH 112 113
HETATM  113  N   UNK N   1      20.029  17.958   0.568  0.00  0.00    -0.430 N 
HETATM  114  H   UNK N   1      19.774  17.659  -0.373  0.00  0.00     0.149 HD
HETATM  115  H   UNK N   1      20.172  18.954   0.737  0.00  0.00     0.149 HD
ENDBRANCH 112 113
ENDBRANCH 111 112
ENDBRANCH 110 111
ENDBRANCH 109 110
ENDBRANCH 108 109
BRANCH 108 116
HETATM  116  N   UNK N   1      23.301  15.774   3.353  0.00  0.00    -0.346 N 
HETATM  117  C   UNK N   1      22.961  14.608   2.746  0.00  0.00     0.240 C 
HETATM  118  O   UNK N   1      22.458  13.698   3.385  0.00  0.00    -0.271 OA
HETATM  119  H   UNK N   1      23.773  16.454   2.820  0.00  0.00     0.163 HD
BRANCH 117 120
HETATM  120  C   UNK N   1      23.222  14.446   1.276  0.00  0.00     0.167 C 
BRANCH 120 121
HETATM  121  C   UNK N   1      22.380  13.324   0.667  0.00  0.00     0.034 C 
BRANCH 121 122
HETATM  122  C   UNK N   1      20.923  13.705   0.471  0.00  0.00     0.004 C 
BRANCH 122 123
HETATM  123  C   UNK N   1      20.030  12.542   0.873  0.00  0.00     0.019 C 
BRANCH 123 124
HETATM  124  C   UNK N   1      18.641  13.030   1.249  0.00  0.00     0.111 C 
BRANCH 124 125
HETATM  125  N   UNK N   1      17.693  12.667   0.209  0.00  0.00    -0.430 N 
HETATM  126  H   UNK N   1      16.821  12.202  -0.040  0.00  0.00     0.149 HD
HETATM  127  H   UNK N   1      18.068  13.048  -0.660  0.00  0.00     0.149 HD
ENDBRANCH 124 125
ENDBRANCH 123 124
ENDBRANCH 122 123
ENDBRANCH 121 122
ENDBRANCH 120 121
BRANCH 120 128
HETATM  128  N   UNK N   1      24.634  14.273   0.973  0.00  0.00    -0.418 N 
HETATM  129  H   UNK N   1      25.365  13.970   0.329  0.00  0.00     0.150 HD
HETATM  130  H   UNK N   1      25.129  14.619   1.795  0.00  0.00     0.150 HD
ENDBRANCH 120 128
ENDBRANCH 117 120
ENDBRANCH 108 116
ENDBRANCH 105 108
ENDBRANCH  92 104
ENDBRANCH  89  92
ENDBRANCH  76  88
ENDBRANCH  73  76
ENDBRANCH   1  72
TORSDOF 52
ENDMDL
MODEL 7
REMARK VINA RESULT:      -6.8      2.763     11.458
REMARK WARNING: 32 MAX_TORS EXCEEDED!!!
REMARK  52 active torsions:
REMARK  status: ('A' for Active; 'I' for Inactive)
REMARK    1  A    between atoms: C_4  and  C_7 
REMARK    2  A    between atoms: C_7  and  C_8 
REMARK    3  A    between atoms: C_7  and  C_14 
REMARK    4  A    between atoms: C_14  and  C_15 
REMARK    5  A    between atoms: C_14  and  N_27 
REMARK       I    between atoms: C_15  and  N_17 
REMARK    6  A    between atoms: C_18  and  N_17 
REMARK    7  A    between atoms: C_18  and  C_19 
REMARK    8  A    between atoms: C_18  and  C_24 
REMARK    9  A    between atoms: C_19  and  C_20 
REMARK   10  A    between atoms: C_20  and  C_21 
REMARK   11  A    between atoms: C_21  and  C_22 
REMARK   12  A    between atoms: C_22  and  N_23 
REMARK       I    between atoms: C_24  and  N_26 
REMARK       I    between atoms: N_27  and  C_28 
REMARK   13  A    between atoms: C_28  and  C_30 
REMARK   14  A    between atoms: C_30  and  C_31 
REMARK   15  A    between atoms: C_30  and  N_41 
REMARK   16  A    between atoms: C_31  and  C_32 
REMARK       I    between atoms: N_41  and  C_42 
REMARK   17  A    between atoms: C_42  and  C_44 
REMARK   18  A    between atoms: C_44  and  C_45 
REMARK   19  A    between atoms: C_44  and  N_50 
REMARK   20  A    between atoms: C_45  and  C_46 
REMARK   21  A    between atoms: C_46  and  C_47 
REMARK   22  A    between atoms: C_47  and  C_48 
REMARK   23  A    between atoms: C_48  and  N_49 
REMARK       I    between atoms: N_50  and  C_51 
REMARK   24  A    between atoms: C_51  and  C_53 
REMARK   25  A    between atoms: C_53  and  C_54 
REMARK   26  A    between atoms: C_53  and  N_59 
REMARK   27  A    between atoms: C_54  and  C_55 
REMARK   28  A    between atoms: C_55  and  C_56 
REMARK   29  A    between atoms: C_56  and  C_57 
REMARK   30  A    between atoms: C_57  and  N_58 
REMARK       I    between atoms: N_59  and  C_60 
REMARK   31  A    between atoms: C_60  and  C_62 
REMARK   32  A    between atoms: C_62  and  C_63 
REMARK   33  A    between atoms: C_62  and  N_73 
REMARK   34  A    between atoms: C_63  and  C_64 
REMARK       I    between atoms: N_73  and  C_74 
REMARK   35  A    between atoms: C_74  and  C_76 
REMARK   36  A    between atoms: C_76  and  C_77 
REMARK   37  A    between atoms: C_76  and  N_87 
REMARK   38  A    between atoms: C_77  and  C_78 
REMARK       I    between atoms: N_87  and  C_88 
REMARK   39  A    between atoms: C_88  and  C_90 
REMARK   40  A    between atoms: C_90  and  C_91 
REMARK   41  A    between atoms: C_90  and  N_96 
REMARK   42  A    between atoms: C_91  and  C_92 
REMARK   43  A    between atoms: C_92  and  C_93 
REMARK   44  A    between atoms: C_93  and  C_94 
REMARK   45  A    between atoms: C_94  and  N_95 
REMARK       I    between atoms: N_96  and  C_97 
REMARK   46  A    between atoms: C_97  and  C_99 
REMARK   47  A    between atoms: C_99  and  C_100 
REMARK   48  A    between atoms: C_99  and  N_105 
REMARK   49  A    between atoms: C_100  and  C_101 
REMARK   50  A    between atoms: C_101  and  C_102 
REMARK   51  A    between atoms: C_102  and  C_103 
REMARK   52  A    between atoms: C_103  and  N_104 
ROOT
HETATM    1  C   UNK N   1      27.899  13.208   2.794  0.00  0.00     0.176 C 
ENDROOT
BRANCH   1   2
HETATM    2  C   UNK N   1      26.416  13.247   2.698  0.00  0.00     0.241 C 
HETATM    3  N   UNK N   1      25.728  12.309   3.400  0.00  0.00    -0.346 N 
HETATM    4  H   UNK N   1      26.245  11.795   4.061  0.00  0.00     0.163 HD
HETATM    5  O   UNK N   1      25.857  14.024   1.939  0.00  0.00    -0.271 OA
BRANCH   3   6
HETATM    6  C   UNK N   1      24.330  11.980   3.289  0.00  0.00     0.176 C 
BRANCH   6   7
HETATM    7  C   UNK N   1      23.858  10.976   4.305  0.00  0.00     0.241 C 
HETATM    8  N   UNK N   1      22.969  11.323   5.265  0.00  0.00    -0.346 N 
HETATM    9  H   UNK N   1      22.762  10.665   5.968  0.00  0.00     0.163 HD
HETATM   10  O   UNK N   1      24.303   9.841   4.296  0.00  0.00    -0.271 OA
BRANCH   8  11
HETATM   11  C   UNK N   1      22.309  12.599   5.316  0.00  0.00     0.181 C 
BRANCH  11  12
HETATM   12  C   UNK N   1      20.798  12.521   5.287  0.00  0.00     0.241 C 
HETATM   13  N   UNK N   1      19.967  13.416   4.656  0.00  0.00    -0.345 N 
HETATM   14  H   UNK N   1      19.010  13.195   4.737  0.00  0.00     0.163 HD
HETATM   15  O   UNK N   1      20.286  11.599   5.902  0.00  0.00    -0.271 OA
BRANCH  13  16
HETATM   16  C   UNK N   1      20.229  14.635   3.883  0.00  0.00     0.189 C 
BRANCH  16  17
HETATM   17  C   UNK N   1      19.896  15.986   4.547  0.00  0.00     0.083 C 
BRANCH  17  18
HETATM   18  C   UNK N   1      20.421  17.254   3.976  0.00  0.00    -0.047 A 
HETATM   19  C   UNK N   1      21.638  17.771   4.433  0.00  0.00     0.008 A 
HETATM   20  C   UNK N   1      21.995  19.077   4.115  0.00  0.00     0.001 A 
HETATM   21  C   UNK N   1      21.145  19.872   3.341  0.00  0.00     0.000 A 
HETATM   22  C   UNK N   1      19.933  19.357   2.882  0.00  0.00     0.001 A 
HETATM   23  C   UNK N   1      19.562  18.055   3.216  0.00  0.00     0.008 A 
ENDBRANCH  17  18
BRANCH  17  24
HETATM   24  C   UNK N   1      19.857  16.086   6.050  0.00  0.00    -0.047 A 
HETATM   25  C   UNK N   1      18.651  16.412   6.679  0.00  0.00     0.008 A 
HETATM   26  C   UNK N   1      18.621  16.697   8.048  0.00  0.00     0.001 A 
HETATM   27  C   UNK N   1      19.807  16.704   8.788  0.00  0.00     0.000 A 
HETATM   28  C   UNK N   1      21.020  16.404   8.166  0.00  0.00     0.001 A 
HETATM   29  C   UNK N   1      21.046  16.098   6.804  0.00  0.00     0.008 A 
ENDBRANCH  17  24
ENDBRANCH  16  17
BRANCH  16  30
HETATM   30  C   UNK N   1      21.244  14.666   2.750  0.00  0.00     0.242 C 
HETATM   31  O   UNK N   1      22.431  14.716   3.017  0.00  0.00    -0.271 OA
HETATM   32  N   UNK N   1      20.885  14.788   1.440  0.00  0.00    -0.346 N 
HETATM   33  H   UNK N   1      21.626  14.838   0.793  0.00  0.00     0.163 HD
BRANCH  32  34
HETATM   34  C   UNK N   1      19.548  14.856   0.880  0.00  0.00     0.176 C 
BRANCH  34  35
HETATM   35  C   UNK N   1      19.140  13.582   0.148  0.00  0.00     0.035 C 
BRANCH  35  36
HETATM   36  C   UNK N   1      18.726  12.462   1.088  0.00  0.00     0.004 C 
BRANCH  36  37
HETATM   37  C   UNK N   1      19.569  11.228   0.844  0.00  0.00     0.019 C 
BRANCH  37  38
HETATM   38  C   UNK N   1      20.515  11.003   2.008  0.00  0.00     0.111 C 
BRANCH  38  39
HETATM   39  N   UNK N   1      20.190   9.753   2.675  0.00  0.00    -0.430 N 
HETATM   40  H   UNK N   1      19.338   9.206   2.796  0.00  0.00     0.149 HD
HETATM   41  H   UNK N   1      20.999   9.327   3.126  0.00  0.00     0.149 HD
ENDBRANCH  38  39
ENDBRANCH  37  38
ENDBRANCH  36  37
ENDBRANCH  35  36
ENDBRANCH  34  35
BRANCH  34  42
HETATM   42  C   UNK N   1      19.288  16.136   0.147  0.00  0.00     0.238 C 
HETATM   43  O   UNK N   1      20.202  16.894  -0.126  0.00  0.00    -0.271 OA
HETATM   44  N   UNK N   1      18.031  16.433  -0.237  0.00  0.00    -0.368 N 
HETATM   45  H   UNK N   1      17.592  15.904  -0.942  0.00  0.00     0.159 HD
HETATM   46  H   UNK N   1      17.551  17.181   0.186  0.00  0.00     0.159 HD
ENDBRANCH  34  42
ENDBRANCH  32  34
ENDBRANCH  16  30
ENDBRANCH  13  16
ENDBRANCH  11  12
BRANCH  11  47
HETATM   47  C   UNK N   1      22.974  13.674   6.221  0.00  0.00     0.075 C 
BRANCH  47  48
HETATM   48  C   UNK N   1      23.490  13.247   7.576  0.00  0.00    -0.028 A 
HETATM   49  C   UNK N   1      24.814  13.049   7.922  0.00  0.00     0.096 A 
HETATM   50  N   UNK N   1      24.908  12.693   9.229  0.00  0.00    -0.365 N 
HETATM   51  C   UNK N   1      23.657  12.661   9.696  0.00  0.00     0.042 A 
HETATM   52  H   UNK N   1      25.733  12.499   9.730  0.00  0.00     0.165 HD
HETATM   53  C   UNK N   1      22.755  12.978   8.720  0.00  0.00    -0.002 A 
HETATM   54  C   UNK N   1      23.268  12.358  11.000  0.00  0.00     0.030 A 
HETATM   55  C   UNK N   1      21.389  12.999   8.982  0.00  0.00     0.014 A 
HETATM   56  C   UNK N   1      20.956  12.698  10.288  0.00  0.00     0.001 A 
HETATM   57  C   UNK N   1      21.895  12.384  11.296  0.00  0.00     0.002 A 
ENDBRANCH  47  48
ENDBRANCH  11  47
ENDBRANCH   8  11
ENDBRANCH   6   7
BRANCH   6  58
HETATM   58  C   UNK N   1      23.792  11.962   1.864  0.00  0.00     0.035 C 
BRANCH  58  59
HETATM   59  C   UNK N   1      24.279  10.804   1.023  0.00  0.00     0.004 C 
BRANCH  59  60
HETATM   60  C   UNK N   1      23.650  10.940  -0.353  0.00  0.00     0.019 C 
BRANCH  60  61
HETATM   61  C   UNK N   1      23.035   9.624  -0.777  0.00  0.00     0.111 C 
BRANCH  61  62
HETATM   62  N   UNK N   1      23.395   9.346  -2.155  0.00  0.00    -0.430 N 
HETATM   63  H   UNK N   1      22.931   8.715  -2.807  0.00  0.00     0.149 HD
HETATM   64  H   UNK N   1      24.210   9.843  -2.515  0.00  0.00     0.149 HD
ENDBRANCH  61  62
ENDBRANCH  60  61
ENDBRANCH  59  60
ENDBRANCH  58  59
ENDBRANCH   6  58
ENDBRANCH   3   6
ENDBRANCH   1   2
BRANCH   1  65
HETATM   65  C   UNK N   1      28.690  13.252   1.517  0.00  0.00     0.035 C 
BRANCH  65  66
HETATM   66  C   UNK N   1      28.505  11.918   0.803  0.00  0.00     0.004 C 
BRANCH  66  67
HETATM   67  C   UNK N   1      29.773  11.082   0.791  0.00  0.00     0.019 C 
BRANCH  67  68
HETATM   68  C   UNK N   1      30.197  10.771  -0.627  0.00  0.00     0.111 C 
BRANCH  68  69
HETATM   69  N   UNK N   1      30.023  11.946  -1.465  0.00  0.00    -0.430 N 
HETATM   70  H   UNK N   1      29.523  12.534  -2.131  0.00  0.00     0.149 HD
HETATM   71  H   UNK N   1      30.876  12.478  -1.289  0.00  0.00     0.149 HD
ENDBRANCH  68  69
ENDBRANCH  67  68
ENDBRANCH  66  67
ENDBRANCH  65  66
ENDBRANCH   1  65
BRANCH   1  72
HETATM   72  N   UNK N   1      28.620  13.223   4.048  0.00  0.00    -0.346 N 
HETATM   73  C   UNK N   1      29.244  14.293   4.614  0.00  0.00     0.241 C 
HETATM   74  O   UNK N   1      29.790  14.134   5.694  0.00  0.00    -0.271 OA
HETATM   75  H   UNK N   1      28.664  12.373   4.543  0.00  0.00     0.163 HD
BRANCH  73  76
HETATM   76  C   UNK N   1      29.241  15.688   4.004  0.00  0.00     0.181 C 
BRANCH  76  77
HETATM   77  C   UNK N   1      27.976  16.029   3.219  0.00  0.00     0.075 C 
BRANCH  77  78
HETATM   78  C   UNK N   1      26.949  16.756   4.037  0.00  0.00    -0.028 A 
HETATM   79  C   UNK N   1      25.837  16.222   4.684  0.00  0.00     0.096 A 
HETATM   80  N   UNK N   1      25.161  17.214   5.316  0.00  0.00    -0.365 N 
HETATM   81  C   UNK N   1      25.838  18.351   5.058  0.00  0.00     0.042 A 
HETATM   82  H   UNK N   1      24.342  17.121   5.854  0.00  0.00     0.165 HD
HETATM   83  C   UNK N   1      26.931  18.100   4.283  0.00  0.00    -0.002 A 
HETATM   84  C   UNK N   1      25.519  19.634   5.489  0.00  0.00     0.030 A 
HETATM   85  C   UNK N   1      27.794  19.117   3.872  0.00  0.00     0.014 A 
HETATM   86  C   UNK N   1      27.501  20.427   4.289  0.00  0.00     0.001 A 
HETATM   87  C   UNK N   1      26.369  20.686   5.095  0.00  0.00     0.002 A 
ENDBRANCH  77  78
ENDBRANCH  76  77
BRANCH  76  88
HETATM   88  N   UNK N   1      30.323  15.832   3.053  0.00  0.00    -0.346 N 
HETATM   89  C   UNK N   1      31.574  16.264   3.311  0.00  0.00     0.241 C 
HETATM   90  O   UNK N   1      32.312  16.501   2.370  0.00  0.00    -0.271 OA
HETATM   91  H   UNK N   1      30.124  15.587   2.120  0.00  0.00     0.163 HD
BRANCH  89  92
HETATM   92  C   UNK N   1      32.114  16.429   4.698  0.00  0.00     0.181 C 
BRANCH  92  93
HETATM   93  C   UNK N   1      31.624  17.724   5.331  0.00  0.00     0.075 C 
BRANCH  93  94
HETATM   94  C   UNK N   1      31.397  17.490   6.791  0.00  0.00    -0.028 A 
HETATM   95  C   UNK N   1      32.389  17.186   7.712  0.00  0.00     0.096 A 
HETATM   96  N   UNK N   1      31.845  16.997   8.935  0.00  0.00    -0.365 N 
HETATM   97  C   UNK N   1      30.519  17.183   8.786  0.00  0.00     0.042 A 
HETATM   98  H   UNK N   1      32.320  16.770   9.767  0.00  0.00     0.165 HD
HETATM   99  C   UNK N   1      30.214  17.492   7.491  0.00  0.00    -0.002 A 
HETATM  100  C   UNK N   1      29.550  17.080   9.774  0.00  0.00     0.030 A 
HETATM  101  C   UNK N   1      28.898  17.729   7.093  0.00  0.00     0.014 A 
HETATM  102  C   UNK N   1      27.889  17.634   8.067  0.00  0.00     0.001 A 
HETATM  103  C   UNK N   1      28.212  17.308   9.403  0.00  0.00     0.002 A 
ENDBRANCH  93  94
ENDBRANCH  92  93
BRANCH  92 104
HETATM  104  N   UNK N   1      33.535  16.124   4.787  0.00  0.00    -0.346 N 
HETATM  105  C   UNK N   1      34.151  14.991   5.232  0.00  0.00     0.241 C 
HETATM  106  O   UNK N   1      35.371  14.942   5.194  0.00  0.00    -0.271 OA
HETATM  107  H   UNK N   1      34.139  16.839   4.483  0.00  0.00     0.163 HD
BRANCH 105 108
HETATM  108  C   UNK N   1      33.400  13.793   5.763  0.00  0.00     0.176 C 
BRANCH 108 109
HETATM  109  C   UNK N   1      33.566  12.624   4.791  0.00  0.00     0.035 C 
BRANCH 109 110
HETATM  110  C   UNK N   1      32.314  12.414   3.960  0.00  0.00     0.004 C 
BRANCH 110 111
HETATM  111  C   UNK N   1      32.582  12.703   2.494  0.00  0.00     0.019 C 
BRANCH 111 112
HETATM  112  C   UNK N   1      34.026  13.133   2.282  0.00  0.00     0.111 C 
BRANCH 112 113
HETATM  113  N   UNK N   1      34.276  13.390   0.875  0.00  0.00    -0.430 N 
HETATM  114  H   UNK N   1      33.830  12.868   0.121  0.00  0.00     0.149 HD
HETATM  115  H   UNK N   1      34.932  14.131   0.628  0.00  0.00     0.149 HD
ENDBRANCH 112 113
ENDBRANCH 111 112
ENDBRANCH 110 111
ENDBRANCH 109 110
ENDBRANCH 108 109
BRANCH 108 116
HETATM  116  N   UNK N   1      33.961  13.427   7.044  0.00  0.00    -0.346 N 
HETATM  117  C   UNK N   1      33.269  13.463   8.212  0.00  0.00     0.240 C 
HETATM  118  O   UNK N   1      32.133  13.907   8.248  0.00  0.00    -0.271 OA
HETATM  119  H   UNK N   1      34.900  13.132   7.071  0.00  0.00     0.163 HD
BRANCH 117 120
HETATM  120  C   UNK N   1      33.924  12.958   9.466  0.00  0.00     0.167 C 
BRANCH 120 121
HETATM  121  C   UNK N   1      35.446  13.098   9.410  0.00  0.00     0.034 C 
BRANCH 121 122
HETATM  122  C   UNK N   1      36.053  13.583  10.715  0.00  0.00     0.004 C 
BRANCH 122 123
HETATM  123  C   UNK N   1      35.113  14.575  11.381  0.00  0.00     0.019 C 
BRANCH 123 124
HETATM  124  C   UNK N   1      35.721  15.967  11.406  0.00  0.00     0.111 C 
BRANCH 124 125
HETATM  125  N   UNK N   1      34.908  16.875  10.615  0.00  0.00    -0.430 N 
HETATM  126  H   UNK N   1      34.649  17.221   9.692  0.00  0.00     0.149 HD
HETATM  127  H   UNK N   1      34.343  17.401  11.283  0.00  0.00     0.149 HD
ENDBRANCH 124 125
ENDBRANCH 123 124
ENDBRANCH 122 123
ENDBRANCH 121 122
ENDBRANCH 120 121
BRANCH 120 128
HETATM  128  N   UNK N   1      33.529  11.598   9.797  0.00  0.00    -0.418 N 
HETATM  129  H   UNK N   1      33.024  10.746   9.555  0.00  0.00     0.150 HD
HETATM  130  H   UNK N   1      33.965  11.405  10.699  0.00  0.00     0.150 HD
ENDBRANCH 120 128
ENDBRANCH 117 120
ENDBRANCH 108 116
ENDBRANCH 105 108
ENDBRANCH  92 104
ENDBRANCH  89  92
ENDBRANCH  76  88
ENDBRANCH  73  76
ENDBRANCH   1  72
TORSDOF 52
ENDMDL
MODEL 8
REMARK VINA RESULT:      -6.8      3.661     12.291
REMARK WARNING: 32 MAX_TORS EXCEEDED!!!
REMARK  52 active torsions:
REMARK  status: ('A' for Active; 'I' for Inactive)
REMARK    1  A    between atoms: C_4  and  C_7 
REMARK    2  A    between atoms: C_7  and  C_8 
REMARK    3  A    between atoms: C_7  and  C_14 
REMARK    4  A    between atoms: C_14  and  C_15 
REMARK    5  A    between atoms: C_14  and  N_27 
REMARK       I    between atoms: C_15  and  N_17 
REMARK    6  A    between atoms: C_18  and  N_17 
REMARK    7  A    between atoms: C_18  and  C_19 
REMARK    8  A    between atoms: C_18  and  C_24 
REMARK    9  A    between atoms: C_19  and  C_20 
REMARK   10  A    between atoms: C_20  and  C_21 
REMARK   11  A    between atoms: C_21  and  C_22 
REMARK   12  A    between atoms: C_22  and  N_23 
REMARK       I    between atoms: C_24  and  N_26 
REMARK       I    between atoms: N_27  and  C_28 
REMARK   13  A    between atoms: C_28  and  C_30 
REMARK   14  A    between atoms: C_30  and  C_31 
REMARK   15  A    between atoms: C_30  and  N_41 
REMARK   16  A    between atoms: C_31  and  C_32 
REMARK       I    between atoms: N_41  and  C_42 
REMARK   17  A    between atoms: C_42  and  C_44 
REMARK   18  A    between atoms: C_44  and  C_45 
REMARK   19  A    between atoms: C_44  and  N_50 
REMARK   20  A    between atoms: C_45  and  C_46 
REMARK   21  A    between atoms: C_46  and  C_47 
REMARK   22  A    between atoms: C_47  and  C_48 
REMARK   23  A    between atoms: C_48  and  N_49 
REMARK       I    between atoms: N_50  and  C_51 
REMARK   24  A    between atoms: C_51  and  C_53 
REMARK   25  A    between atoms: C_53  and  C_54 
REMARK   26  A    between atoms: C_53  and  N_59 
REMARK   27  A    between atoms: C_54  and  C_55 
REMARK   28  A    between atoms: C_55  and  C_56 
REMARK   29  A    between atoms: C_56  and  C_57 
REMARK   30  A    between atoms: C_57  and  N_58 
REMARK       I    between atoms: N_59  and  C_60 
REMARK   31  A    between atoms: C_60  and  C_62 
REMARK   32  A    between atoms: C_62  and  C_63 
REMARK   33  A    between atoms: C_62  and  N_73 
REMARK   34  A    between atoms: C_63  and  C_64 
REMARK       I    between atoms: N_73  and  C_74 
REMARK   35  A    between atoms: C_74  and  C_76 
REMARK   36  A    between atoms: C_76  and  C_77 
REMARK   37  A    between atoms: C_76  and  N_87 
REMARK   38  A    between atoms: C_77  and  C_78 
REMARK       I    between atoms: N_87  and  C_88 
REMARK   39  A    between atoms: C_88  and  C_90 
REMARK   40  A    between atoms: C_90  and  C_91 
REMARK   41  A    between atoms: C_90  and  N_96 
REMARK   42  A    between atoms: C_91  and  C_92 
REMARK   43  A    between atoms: C_92  and  C_93 
REMARK   44  A    between atoms: C_93  and  C_94 
REMARK   45  A    between atoms: C_94  and  N_95 
REMARK       I    between atoms: N_96  and  C_97 
REMARK   46  A    between atoms: C_97  and  C_99 
REMARK   47  A    between atoms: C_99  and  C_100 
REMARK   48  A    between atoms: C_99  and  N_105 
REMARK   49  A    between atoms: C_100  and  C_101 
REMARK   50  A    between atoms: C_101  and  C_102 
REMARK   51  A    between atoms: C_102  and  C_103 
REMARK   52  A    between atoms: C_103  and  N_104 
ROOT
HETATM    1  C   UNK N   1      30.210  16.892   5.103  0.00  0.00     0.176 C 
ENDROOT
BRANCH   1   2
HETATM    2  C   UNK N   1      29.589  16.314   3.881  0.00  0.00     0.241 C 
HETATM    3  N   UNK N   1      28.574  15.431   4.064  0.00  0.00    -0.346 N 
HETATM    4  H   UNK N   1      28.201  15.379   4.974  0.00  0.00     0.163 HD
HETATM    5  O   UNK N   1      30.048  16.551   2.773  0.00  0.00    -0.271 OA
BRANCH   3   6
HETATM    6  C   UNK N   1      27.978  14.562   3.082  0.00  0.00     0.176 C 
BRANCH   6   7
HETATM    7  C   UNK N   1      26.625  15.017   2.607  0.00  0.00     0.241 C 
HETATM    8  N   UNK N   1      25.519  14.817   3.361  0.00  0.00    -0.346 N 
HETATM    9  H   UNK N   1      24.643  15.041   2.971  0.00  0.00     0.163 HD
HETATM   10  O   UNK N   1      26.506  15.541   1.512  0.00  0.00    -0.271 OA
BRANCH   8  11
HETATM   11  C   UNK N   1      25.552  14.297   4.701  0.00  0.00     0.181 C 
BRANCH  11  12
HETATM   12  C   UNK N   1      25.613  15.357   5.780  0.00  0.00     0.241 C 
HETATM   13  N   UNK N   1      24.786  16.452   5.868  0.00  0.00    -0.345 N 
HETATM   14  H   UNK N   1      24.970  17.028   6.646  0.00  0.00     0.163 HD
HETATM   15  O   UNK N   1      26.492  15.234   6.618  0.00  0.00    -0.271 OA
BRANCH  13  16
HETATM   16  C   UNK N   1      23.681  16.927   5.029  0.00  0.00     0.189 C 
BRANCH  16  17
HETATM   17  C   UNK N   1      23.934  18.170   4.152  0.00  0.00     0.083 C 
BRANCH  17  18
HETATM   18  C   UNK N   1      25.186  18.957   4.307  0.00  0.00    -0.047 A 
HETATM   19  C   UNK N   1      26.322  18.609   3.569  0.00  0.00     0.008 A 
HETATM   20  C   UNK N   1      27.557  19.152   3.906  0.00  0.00     0.001 A 
HETATM   21  C   UNK N   1      27.667  20.043   4.977  0.00  0.00     0.000 A 
HETATM   22  C   UNK N   1      26.535  20.395   5.712  0.00  0.00     0.001 A 
HETATM   23  C   UNK N   1      25.298  19.836   5.389  0.00  0.00     0.008 A 
ENDBRANCH  17  18
BRANCH  17  24
HETATM   24  C   UNK N   1      22.792  19.098   3.829  0.00  0.00    -0.047 A 
HETATM   25  C   UNK N   1      21.522  18.818   4.342  0.00  0.00     0.008 A 
HETATM   26  C   UNK N   1      20.408  19.546   3.913  0.00  0.00     0.001 A 
HETATM   27  C   UNK N   1      20.550  20.528   2.929  0.00  0.00     0.000 A 
HETATM   28  C   UNK N   1      21.809  20.800   2.391  0.00  0.00     0.001 A 
HETATM   29  C   UNK N   1      22.925  20.088   2.837  0.00  0.00     0.008 A 
ENDBRANCH  17  24
ENDBRANCH  16  17
BRANCH  16  30
HETATM   30  C   UNK N   1      22.547  16.009   4.595  0.00  0.00     0.242 C 
HETATM   31  O   UNK N   1      22.401  15.764   3.412  0.00  0.00    -0.271 OA
HETATM   32  N   UNK N   1      21.590  15.560   5.458  0.00  0.00    -0.346 N 
HETATM   33  H   UNK N   1      20.881  15.003   5.062  0.00  0.00     0.163 HD
BRANCH  32  34
HETATM   34  C   UNK N   1      21.486  15.800   6.885  0.00  0.00     0.176 C 
BRANCH  34  35
HETATM   35  C   UNK N   1      21.511  14.519   7.712  0.00  0.00     0.035 C 
BRANCH  35  36
HETATM   36  C   UNK N   1      21.070  14.729   9.150  0.00  0.00     0.004 C 
BRANCH  36  37
HETATM   37  C   UNK N   1      21.375  13.501   9.982  0.00  0.00     0.019 C 
BRANCH  37  38
HETATM   38  C   UNK N   1      22.829  13.101   9.807  0.00  0.00     0.111 C 
BRANCH  38  39
HETATM   39  N   UNK N   1      23.398  12.734  11.092  0.00  0.00    -0.430 N 
HETATM   40  H   UNK N   1      24.335  12.757  11.494  0.00  0.00     0.149 HD
HETATM   41  H   UNK N   1      22.700  12.368  11.740  0.00  0.00     0.149 HD
ENDBRANCH  38  39
ENDBRANCH  37  38
ENDBRANCH  36  37
ENDBRANCH  35  36
ENDBRANCH  34  35
BRANCH  34  42
HETATM   42  C   UNK N   1      20.405  16.776   7.234  0.00  0.00     0.238 C 
HETATM   43  O   UNK N   1      20.680  17.874   7.686  0.00  0.00    -0.271 OA
HETATM   44  N   UNK N   1      19.118  16.442   7.015  0.00  0.00    -0.368 N 
HETATM   45  H   UNK N   1      18.781  16.349   6.095  0.00  0.00     0.159 HD
HETATM   46  H   UNK N   1      18.513  16.291   7.777  0.00  0.00     0.159 HD
ENDBRANCH  34  42
ENDBRANCH  32  34
ENDBRANCH  16  30
ENDBRANCH  13  16
ENDBRANCH  11  12
BRANCH  11  47
HETATM   47  C   UNK N   1      24.688  13.031   4.962  0.00  0.00     0.075 C 
BRANCH  47  48
HETATM   48  C   UNK N   1      25.123  11.728   4.331  0.00  0.00    -0.028 A 
HETATM   49  C   UNK N   1      25.687  10.649   4.986  0.00  0.00     0.096 A 
HETATM   50  N   UNK N   1      25.928   9.643   4.108  0.00  0.00    -0.365 N 
HETATM   51  C   UNK N   1      25.528  10.086   2.914  0.00  0.00     0.042 A 
HETATM   52  H   UNK N   1      26.319   8.762   4.312  0.00  0.00     0.165 HD
HETATM   53  C   UNK N   1      25.041  11.361   2.997  0.00  0.00    -0.002 A 
HETATM   54  C   UNK N   1      25.570   9.382   1.711  0.00  0.00     0.030 A 
HETATM   55  C   UNK N   1      24.575  12.028   1.869  0.00  0.00     0.014 A 
HETATM   56  C   UNK N   1      24.601  11.348   0.635  0.00  0.00     0.001 A 
HETATM   57  C   UNK N   1      25.092  10.027   0.558  0.00  0.00     0.002 A 
ENDBRANCH  47  48
ENDBRANCH  11  47
ENDBRANCH   8  11
ENDBRANCH   6   7
BRANCH   6  58
HETATM   58  C   UNK N   1      28.283  13.082   3.275  0.00  0.00     0.035 C 
BRANCH  58  59
HETATM   59  C   UNK N   1      28.403  12.293   1.991  0.00  0.00     0.004 C 
BRANCH  59  60
HETATM   60  C   UNK N   1      29.356  13.043   1.078  0.00  0.00     0.019 C 
BRANCH  60  61
HETATM   61  C   UNK N   1      29.722  12.184  -0.113  0.00  0.00     0.111 C 
BRANCH  61  62
HETATM   62  N   UNK N   1      29.089  10.885   0.018  0.00  0.00    -0.430 N 
HETATM   63  H   UNK N   1      28.829  10.239  -0.727  0.00  0.00     0.149 HD
HETATM   64  H   UNK N   1      28.879  10.582   0.969  0.00  0.00     0.149 HD
ENDBRANCH  61  62
ENDBRANCH  60  61
ENDBRANCH  59  60
ENDBRANCH  58  59
ENDBRANCH   6  58
ENDBRANCH   3   6
ENDBRANCH   1   2
BRANCH   1  65
HETATM   65  C   UNK N   1      29.511  16.680   6.416  0.00  0.00     0.035 C 
BRANCH  65  66
HETATM   66  C   UNK N   1      29.438  18.025   7.132  0.00  0.00     0.004 C 
BRANCH  66  67
HETATM   67  C   UNK N   1      28.422  18.030   8.260  0.00  0.00     0.019 C 
BRANCH  67  68
HETATM   68  C   UNK N   1      29.100  17.810   9.594  0.00  0.00     0.111 C 
BRANCH  68  69
HETATM   69  N   UNK N   1      30.507  18.165   9.499  0.00  0.00    -0.430 N 
HETATM   70  H   UNK N   1      31.420  18.408   9.879  0.00  0.00     0.149 HD
HETATM   71  H   UNK N   1      30.669  18.176   8.491  0.00  0.00     0.149 HD
ENDBRANCH  68  69
ENDBRANCH  67  68
ENDBRANCH  66  67
ENDBRANCH  65  66
ENDBRANCH   1  65
BRANCH   1  72
HETATM   72  N   UNK N   1      31.491  17.563   5.107  0.00  0.00    -0.346 N 
HETATM   73  C   UNK N   1      32.681  17.041   5.516  0.00  0.00     0.241 C 
HETATM   74  O   UNK N   1      33.675  17.744   5.431  0.00  0.00    -0.271 OA
HETATM   75  H   UNK N   1      31.504  18.493   4.783  0.00  0.00     0.163 HD
BRANCH  73  76
HETATM   76  C   UNK N   1      32.847  15.610   6.009  0.00  0.00     0.181 C 
BRANCH  76  77
HETATM   77  C   UNK N   1      32.039  14.577   5.226  0.00  0.00     0.075 C 
BRANCH  77  78
HETATM   78  C   UNK N   1      32.665  14.209   3.912  0.00  0.00    -0.028 A 
HETATM   79  C   UNK N   1      33.477  14.999   3.101  0.00  0.00     0.096 A 
HETATM   80  N   UNK N   1      33.837  14.295   1.999  0.00  0.00    -0.365 N 
HETATM   81  C   UNK N   1      33.250  13.086   2.118  0.00  0.00     0.042 A 
HETATM   82  H   UNK N   1      34.412  14.604   1.262  0.00  0.00     0.165 HD
HETATM   83  C   UNK N   1      32.532  13.008   3.274  0.00  0.00    -0.002 A 
HETATM   84  C   UNK N   1      33.325  12.025   1.223  0.00  0.00     0.030 A 
HETATM   85  C   UNK N   1      31.825  11.858   3.627  0.00  0.00     0.014 A 
HETATM   86  C   UNK N   1      31.877  10.765   2.744  0.00  0.00     0.001 A 
HETATM   87  C   UNK N   1      32.624  10.847   1.547  0.00  0.00     0.002 A 
ENDBRANCH  77  78
ENDBRANCH  76  77
BRANCH  76  88
HETATM   88  N   UNK N   1      32.388  15.485   7.377  0.00  0.00    -0.346 N 
HETATM   89  C   UNK N   1      33.123  15.111   8.445  0.00  0.00     0.241 C 
HETATM   90  O   UNK N   1      32.547  14.880   9.494  0.00  0.00    -0.271 OA
HETATM   91  H   UNK N   1      31.441  15.697   7.545  0.00  0.00     0.163 HD
BRANCH  89  92
HETATM   92  C   UNK N   1      34.617  15.006   8.414  0.00  0.00     0.181 C 
BRANCH  92  93
HETATM   93  C   UNK N   1      35.066  13.558   8.274  0.00  0.00     0.075 C 
BRANCH  93  94
HETATM   94  C   UNK N   1      35.591  13.350   6.889  0.00  0.00    -0.028 A 
HETATM   95  C   UNK N   1      36.337  14.275   6.173  0.00  0.00     0.096 A 
HETATM   96  N   UNK N   1      36.619  13.791   4.942  0.00  0.00    -0.365 N 
HETATM   97  C   UNK N   1      36.055  12.569   4.884  0.00  0.00     0.042 A 
HETATM   98  H   UNK N   1      37.132  14.240   4.232  0.00  0.00     0.165 HD
HETATM   99  C   UNK N   1      35.427  12.267   6.058  0.00  0.00    -0.002 A 
HETATM  100  C   UNK N   1      36.073  11.697   3.804  0.00  0.00     0.030 A 
HETATM  101  C   UNK N   1      34.769  11.050   6.236  0.00  0.00     0.014 A 
HETATM  102  C   UNK N   1      34.765  10.141   5.164  0.00  0.00     0.001 A 
HETATM  103  C   UNK N   1      35.413  10.463   3.950  0.00  0.00     0.002 A 
ENDBRANCH  93  94
ENDBRANCH  92  93
BRANCH  92 104
HETATM  104  N   UNK N   1      35.258  15.821   9.438  0.00  0.00    -0.346 N 
HETATM  105  C   UNK N   1      36.257  15.491  10.306  0.00  0.00     0.241 C 
HETATM  106  O   UNK N   1      36.665  16.350  11.073  0.00  0.00    -0.271 OA
HETATM  107  H   UNK N   1      34.921  16.742   9.515  0.00  0.00     0.163 HD
BRANCH 105 108
HETATM  108  C   UNK N   1      36.889  14.120  10.361  0.00  0.00     0.176 C 
BRANCH 108 109
HETATM  109  C   UNK N   1      38.260  14.171   9.687  0.00  0.00     0.035 C 
BRANCH 109 110
HETATM  110  C   UNK N   1      38.978  12.839   9.793  0.00  0.00     0.004 C 
BRANCH 110 111
HETATM  111  C   UNK N   1      38.546  11.901   8.679  0.00  0.00     0.019 C 
BRANCH 111 112
HETATM  112  C   UNK N   1      37.601  10.833   9.207  0.00  0.00     0.111 C 
BRANCH 112 113
HETATM  113  N   UNK N   1      38.054  10.352  10.501  0.00  0.00    -0.430 N 
HETATM  114  H   UNK N   1      38.129   9.363  10.738  0.00  0.00     0.149 HD
HETATM  115  H   UNK N   1      38.310  11.040  11.210  0.00  0.00     0.149 HD
ENDBRANCH 112 113
ENDBRANCH 111 112
ENDBRANCH 110 111
ENDBRANCH 109 110
ENDBRANCH 108 109
BRANCH 108 116
HETATM  116  N   UNK N   1      37.056  13.745  11.747  0.00  0.00    -0.346 N 
HETATM  117  C   UNK N   1      36.250  12.866  12.396  0.00  0.00     0.240 C 
HETATM  118  O   UNK N   1      35.261  12.407  11.847  0.00  0.00    -0.271 OA
HETATM  119  H   UNK N   1      37.799  14.150  12.250  0.00  0.00     0.163 HD
BRANCH 117 120
HETATM  120  C   UNK N   1      36.583  12.471  13.806  0.00  0.00     0.167 C 
BRANCH 120 121
HETATM  121  C   UNK N   1      36.208  13.564  14.808  0.00  0.00     0.034 C 
BRANCH 121 122
HETATM  122  C   UNK N   1      35.050  13.179  15.713  0.00  0.00     0.004 C 
BRANCH 122 123
HETATM  123  C   UNK N   1      35.578  12.459  16.943  0.00  0.00     0.019 C 
BRANCH 123 124
HETATM  124  C   UNK N   1      35.059  13.108  18.215  0.00  0.00     0.111 C 
BRANCH 124 125
HETATM  125  N   UNK N   1      35.532  14.479  18.297  0.00  0.00    -0.430 N 
HETATM  126  H   UNK N   1      35.964  15.273  17.826  0.00  0.00     0.149 HD
HETATM  127  H   UNK N   1      35.349  14.784  19.254  0.00  0.00     0.149 HD
ENDBRANCH 124 125
ENDBRANCH 123 124
ENDBRANCH 122 123
ENDBRANCH 121 122
ENDBRANCH 120 121
BRANCH 120 128
HETATM  128  N   UNK N   1      37.971  12.063  13.961  0.00  0.00    -0.418 N 
HETATM  129  H   UNK N   1      38.849  12.111  14.477  0.00  0.00     0.150 HD
HETATM  130  H   UNK N   1      38.151  11.426  13.186  0.00  0.00     0.150 HD
ENDBRANCH 120 128
ENDBRANCH 117 120
ENDBRANCH 108 116
ENDBRANCH 105 108
ENDBRANCH  92 104
ENDBRANCH  89  92
ENDBRANCH  76  88
ENDBRANCH  73  76
ENDBRANCH   1  72
TORSDOF 52
ENDMDL
MODEL 9
REMARK VINA RESULT:      -6.8      2.904      6.617
REMARK WARNING: 32 MAX_TORS EXCEEDED!!!
REMARK  52 active torsions:
REMARK  status: ('A' for Active; 'I' for Inactive)
REMARK    1  A    between atoms: C_4  and  C_7 
REMARK    2  A    between atoms: C_7  and  C_8 
REMARK    3  A    between atoms: C_7  and  C_14 
REMARK    4  A    between atoms: C_14  and  C_15 
REMARK    5  A    between atoms: C_14  and  N_27 
REMARK       I    between atoms: C_15  and  N_17 
REMARK    6  A    between atoms: C_18  and  N_17 
REMARK    7  A    between atoms: C_18  and  C_19 
REMARK    8  A    between atoms: C_18  and  C_24 
REMARK    9  A    between atoms: C_19  and  C_20 
REMARK   10  A    between atoms: C_20  and  C_21 
REMARK   11  A    between atoms: C_21  and  C_22 
REMARK   12  A    between atoms: C_22  and  N_23 
REMARK       I    between atoms: C_24  and  N_26 
REMARK       I    between atoms: N_27  and  C_28 
REMARK   13  A    between atoms: C_28  and  C_30 
REMARK   14  A    between atoms: C_30  and  C_31 
REMARK   15  A    between atoms: C_30  and  N_41 
REMARK   16  A    between atoms: C_31  and  C_32 
REMARK       I    between atoms: N_41  and  C_42 
REMARK   17  A    between atoms: C_42  and  C_44 
REMARK   18  A    between atoms: C_44  and  C_45 
REMARK   19  A    between atoms: C_44  and  N_50 
REMARK   20  A    between atoms: C_45  and  C_46 
REMARK   21  A    between atoms: C_46  and  C_47 
REMARK   22  A    between atoms: C_47  and  C_48 
REMARK   23  A    between atoms: C_48  and  N_49 
REMARK       I    between atoms: N_50  and  C_51 
REMARK   24  A    between atoms: C_51  and  C_53 
REMARK   25  A    between atoms: C_53  and  C_54 
REMARK   26  A    between atoms: C_53  and  N_59 
REMARK   27  A    between atoms: C_54  and  C_55 
REMARK   28  A    between atoms: C_55  and  C_56 
REMARK   29  A    between atoms: C_56  and  C_57 
REMARK   30  A    between atoms: C_57  and  N_58 
REMARK       I    between atoms: N_59  and  C_60 
REMARK   31  A    between atoms: C_60  and  C_62 
REMARK   32  A    between atoms: C_62  and  C_63 
REMARK   33  A    between atoms: C_62  and  N_73 
REMARK   34  A    between atoms: C_63  and  C_64 
REMARK       I    between atoms: N_73  and  C_74 
REMARK   35  A    between atoms: C_74  and  C_76 
REMARK   36  A    between atoms: C_76  and  C_77 
REMARK   37  A    between atoms: C_76  and  N_87 
REMARK   38  A    between atoms: C_77  and  C_78 
REMARK       I    between atoms: N_87  and  C_88 
REMARK   39  A    between atoms: C_88  and  C_90 
REMARK   40  A    between atoms: C_90  and  C_91 
REMARK   41  A    between atoms: C_90  and  N_96 
REMARK   42  A    between atoms: C_91  and  C_92 
REMARK   43  A    between atoms: C_92  and  C_93 
REMARK   44  A    between atoms: C_93  and  C_94 
REMARK   45  A    between atoms: C_94  and  N_95 
REMARK       I    between atoms: N_96  and  C_97 
REMARK   46  A    between atoms: C_97  and  C_99 
REMARK   47  A    between atoms: C_99  and  C_100 
REMARK   48  A    between atoms: C_99  and  N_105 
REMARK   49  A    between atoms: C_100  and  C_101 
REMARK   50  A    between atoms: C_101  and  C_102 
REMARK   51  A    between atoms: C_102  and  C_103 
REMARK   52  A    between atoms: C_103  and  N_104 
ROOT
HETATM    1  C   UNK N   1      28.266  14.700   3.935  0.00  0.00     0.176 C 
ENDROOT
BRANCH   1   2
HETATM    2  C   UNK N   1      29.574  14.502   4.614  0.00  0.00     0.241 C 
HETATM    3  N   UNK N   1      30.648  14.248   3.822  0.00  0.00    -0.346 N 
HETATM    4  H   UNK N   1      30.521  14.397   2.857  0.00  0.00     0.163 HD
HETATM    5  O   UNK N   1      29.648  14.468   5.833  0.00  0.00    -0.271 OA
BRANCH   3   6
HETATM    6  C   UNK N   1      31.950  13.786   4.229  0.00  0.00     0.176 C 
BRANCH   6   7
HETATM    7  C   UNK N   1      33.075  14.309   3.377  0.00  0.00     0.241 C 
HETATM    8  N   UNK N   1      34.037  15.101   3.905  0.00  0.00    -0.346 N 
HETATM    9  H   UNK N   1      34.699  15.500   3.295  0.00  0.00     0.163 HD
HETATM   10  O   UNK N   1      33.111  14.052   2.186  0.00  0.00    -0.271 OA
BRANCH   8  11
HETATM   11  C   UNK N   1      34.149  15.392   5.309  0.00  0.00     0.181 C 
BRANCH  11  12
HETATM   12  C   UNK N   1      35.331  14.735   5.990  0.00  0.00     0.241 C 
HETATM   13  N   UNK N   1      35.251  13.791   6.987  0.00  0.00    -0.345 N 
HETATM   14  H   UNK N   1      36.128  13.470   7.301  0.00  0.00     0.163 HD
HETATM   15  O   UNK N   1      36.439  15.102   5.636  0.00  0.00    -0.271 OA
BRANCH  13  16
HETATM   16  C   UNK N   1      34.113  13.169   7.671  0.00  0.00     0.189 C 
BRANCH  16  17
HETATM   17  C   UNK N   1      34.217  11.667   8.005  0.00  0.00     0.083 C 
BRANCH  17  18
HETATM   18  C   UNK N   1      35.195  11.187   9.016  0.00  0.00    -0.047 A 
HETATM   19  C   UNK N   1      36.558  11.149   8.702  0.00  0.00     0.008 A 
HETATM   20  C   UNK N   1      37.436  10.451   9.523  0.00  0.00     0.001 A 
HETATM   21  C   UNK N   1      36.964   9.791  10.660  0.00  0.00     0.000 A 
HETATM   22  C   UNK N   1      35.607   9.830  10.978  0.00  0.00     0.001 A 
HETATM   23  C   UNK N   1      34.719  10.512  10.145  0.00  0.00     0.008 A 
ENDBRANCH  17  18
BRANCH  17  24
HETATM   24  C   UNK N   1      34.091  10.649   6.901  0.00  0.00    -0.047 A 
HETATM   25  C   UNK N   1      33.156   9.617   7.031  0.00  0.00     0.008 A 
HETATM   26  C   UNK N   1      33.142   8.556   6.121  0.00  0.00     0.001 A 
HETATM   27  C   UNK N   1      34.096   8.495   5.101  0.00  0.00     0.000 A 
HETATM   28  C   UNK N   1      35.050   9.507   4.976  0.00  0.00     0.001 A 
HETATM   29  C   UNK N   1      35.048  10.578   5.872  0.00  0.00     0.008 A 
ENDBRANCH  17  24
ENDBRANCH  16  17
BRANCH  16  30
HETATM   30  C   UNK N   1      33.127  13.982   8.496  0.00  0.00     0.242 C 
HETATM   31  O   UNK N   1      31.980  14.099   8.106  0.00  0.00    -0.271 OA
HETATM   32  N   UNK N   1      33.503  14.715   9.585  0.00  0.00    -0.346 N 
HETATM   33  H   UNK N   1      32.789  15.235  10.021  0.00  0.00     0.163 HD
BRANCH  32  34
HETATM   34  C   UNK N   1      34.823  14.825  10.179  0.00  0.00     0.176 C 
BRANCH  34  35
HETATM   35  C   UNK N   1      34.974  14.005  11.456  0.00  0.00     0.035 C 
BRANCH  35  36
HETATM   36  C   UNK N   1      36.376  13.453  11.648  0.00  0.00     0.004 C 
BRANCH  36  37
HETATM   37  C   UNK N   1      36.619  13.120  13.104  0.00  0.00     0.019 C 
BRANCH  37  38
HETATM   38  C   UNK N   1      36.431  14.358  13.961  0.00  0.00     0.111 C 
BRANCH  38  39
HETATM   39  N   UNK N   1      37.172  14.217  15.203  0.00  0.00    -0.430 N 
HETATM   40  H   UNK N   1      36.935  14.292  16.192  0.00  0.00     0.149 HD
HETATM   41  H   UNK N   1      38.155  13.991  15.050  0.00  0.00     0.149 HD
ENDBRANCH  38  39
ENDBRANCH  37  38
ENDBRANCH  36  37
ENDBRANCH  35  36
ENDBRANCH  34  35
BRANCH  34  42
HETATM   42  C   UNK N   1      35.312  16.238  10.253  0.00  0.00     0.238 C 
HETATM   43  O   UNK N   1      36.433  16.488  10.660  0.00  0.00    -0.271 OA
HETATM   44  N   UNK N   1      34.509  17.237   9.838  0.00  0.00    -0.368 N 
HETATM   45  H   UNK N   1      34.290  17.331   8.883  0.00  0.00     0.159 HD
HETATM   46  H   UNK N   1      34.141  17.877  10.490  0.00  0.00     0.159 HD
ENDBRANCH  34  42
ENDBRANCH  32  34
ENDBRANCH  16  30
ENDBRANCH  13  16
ENDBRANCH  11  12
BRANCH  11  47
HETATM   47  C   UNK N   1      33.759  16.834   5.739  0.00  0.00     0.075 C 
BRANCH  47  48
HETATM   48  C   UNK N   1      32.320  17.265   5.571  0.00  0.00    -0.028 A 
HETATM   49  C   UNK N   1      31.692  17.577   4.380  0.00  0.00     0.096 A 
HETATM   50  N   UNK N   1      30.393  17.899   4.606  0.00  0.00    -0.365 N 
HETATM   51  C   UNK N   1      30.208  17.797   5.925  0.00  0.00     0.042 A 
HETATM   52  H   UNK N   1      29.722  18.154   3.933  0.00  0.00     0.165 HD
HETATM   53  C   UNK N   1      31.361  17.426   6.559  0.00  0.00    -0.002 A 
HETATM   54  C   UNK N   1      29.017  18.019   6.615  0.00  0.00     0.030 A 
HETATM   55  C   UNK N   1      31.403  17.267   7.940  0.00  0.00     0.014 A 
HETATM   56  C   UNK N   1      30.218  17.483   8.672  0.00  0.00     0.001 A 
HETATM   57  C   UNK N   1      29.028  17.852   8.010  0.00  0.00     0.002 A 
ENDBRANCH  47  48
ENDBRANCH  11  47
ENDBRANCH   8  11
ENDBRANCH   6   7
BRANCH   6  58
HETATM   58  C   UNK N   1      31.978  12.366   4.777  0.00  0.00     0.035 C 
BRANCH  58  59
HETATM   59  C   UNK N   1      31.745  11.288   3.742  0.00  0.00     0.004 C 
BRANCH  59  60
HETATM   60  C   UNK N   1      30.443  10.590   4.092  0.00  0.00     0.019 C 
BRANCH  60  61
HETATM   61  C   UNK N   1      29.558  10.493   2.868  0.00  0.00     0.111 C 
BRANCH  61  62
HETATM   62  N   UNK N   1      30.069  11.374   1.835  0.00  0.00    -0.430 N 
HETATM   63  H   UNK N   1      29.631  12.214   1.457  0.00  0.00     0.149 HD
HETATM   64  H   UNK N   1      30.975  11.123   1.439  0.00  0.00     0.149 HD
ENDBRANCH  61  62
ENDBRANCH  60  61
ENDBRANCH  59  60
ENDBRANCH  58  59
ENDBRANCH   6  58
ENDBRANCH   3   6
ENDBRANCH   1   2
BRANCH   1  65
HETATM   65  C   UNK N   1      27.423  15.870   4.358  0.00  0.00     0.035 C 
BRANCH  65  66
HETATM   66  C   UNK N   1      26.785  16.466   3.107  0.00  0.00     0.004 C 
BRANCH  66  67
HETATM   67  C   UNK N   1      25.848  17.618   3.423  0.00  0.00     0.019 C 
BRANCH  67  68
HETATM   68  C   UNK N   1      25.855  17.925   4.904  0.00  0.00     0.111 C 
BRANCH  68  69
HETATM   69  N   UNK N   1      24.632  18.618   5.272  0.00  0.00    -0.430 N 
HETATM   70  H   UNK N   1      24.067  19.242   5.847  0.00  0.00     0.149 HD
HETATM   71  H   UNK N   1      23.972  18.307   4.558  0.00  0.00     0.149 HD
ENDBRANCH  68  69
ENDBRANCH  67  68
ENDBRANCH  66  67
ENDBRANCH  65  66
ENDBRANCH   1  65
BRANCH   1  72
HETATM   72  N   UNK N   1      27.807  13.886   2.832  0.00  0.00    -0.346 N 
HETATM   73  C   UNK N   1      26.824  12.944   2.871  0.00  0.00     0.241 C 
HETATM   74  O   UNK N   1      26.546  12.361   1.835  0.00  0.00    -0.271 OA
HETATM   75  H   UNK N   1      28.249  14.027   1.963  0.00  0.00     0.163 HD
BRANCH  73  76
HETATM   76  C   UNK N   1      26.012  12.626   4.120  0.00  0.00     0.181 C 
BRANCH  76  77
HETATM   77  C   UNK N   1      26.510  11.412   4.901  0.00  0.00     0.075 C 
BRANCH  77  78
HETATM   78  C   UNK N   1      25.796  10.142   4.540  0.00  0.00    -0.028 A 
HETATM   79  C   UNK N   1      25.948   9.375   3.388  0.00  0.00     0.096 A 
HETATM   80  N   UNK N   1      25.119   8.302   3.445  0.00  0.00    -0.365 N 
HETATM   81  C   UNK N   1      24.454   8.406   4.614  0.00  0.00     0.042 A 
HETATM   82  H   UNK N   1      25.023   7.592   2.770  0.00  0.00     0.165 HD
HETATM   83  C   UNK N   1      24.848   9.516   5.300  0.00  0.00    -0.002 A 
HETATM   84  C   UNK N   1      23.488   7.538   5.109  0.00  0.00     0.030 A 
HETATM   85  C   UNK N   1      24.302   9.850   6.540  0.00  0.00     0.014 A 
HETATM   86  C   UNK N   1      23.321   8.996   7.071  0.00  0.00     0.001 A 
HETATM   87  C   UNK N   1      22.915   7.843   6.360  0.00  0.00     0.002 A 
ENDBRANCH  77  78
ENDBRANCH  76  77
BRANCH  76  88
HETATM   88  N   UNK N   1      24.642  12.312   3.771  0.00  0.00    -0.346 N 
HETATM   89  C   UNK N   1      23.530  12.718   4.418  0.00  0.00     0.241 C 
HETATM   90  O   UNK N   1      22.462  12.219   4.107  0.00  0.00    -0.271 OA
HETATM   91  H   UNK N   1      24.509  11.742   2.979  0.00  0.00     0.163 HD
BRANCH  89  92
HETATM   92  C   UNK N   1      23.538  13.783   5.471  0.00  0.00     0.181 C 
BRANCH  92  93
HETATM   93  C   UNK N   1      22.621  13.420   6.630  0.00  0.00     0.075 C 
BRANCH  93  94
HETATM   94  C   UNK N   1      23.453  13.218   7.857  0.00  0.00    -0.028 A 
HETATM   95  C   UNK N   1      24.829  13.381   7.921  0.00  0.00     0.096 A 
HETATM   96  N   UNK N   1      25.274  13.081   9.163  0.00  0.00    -0.365 N 
HETATM   97  C   UNK N   1      24.185  12.734   9.876  0.00  0.00     0.042 A 
HETATM   98  H   UNK N   1      26.205  13.111   9.482  0.00  0.00     0.165 HD
HETATM   99  C   UNK N   1      23.057  12.814   9.110  0.00  0.00    -0.002 A 
HETATM  100  C   UNK N   1      24.156  12.335  11.205  0.00  0.00     0.030 A 
HETATM  101  C   UNK N   1      21.802  12.501   9.633  0.00  0.00     0.014 A 
HETATM  102  C   UNK N   1      21.733  12.093  10.977  0.00  0.00     0.001 A 
HETATM  103  C   UNK N   1      22.905  12.007  11.761  0.00  0.00     0.002 A 
ENDBRANCH  93  94
ENDBRANCH  92  93
BRANCH  92 104
HETATM  104  N   UNK N   1      23.432  15.125   4.914  0.00  0.00    -0.346 N 
HETATM  105  C   UNK N   1      22.317  15.855   4.623  0.00  0.00     0.241 C 
HETATM  106  O   UNK N   1      22.464  16.984   4.179  0.00  0.00    -0.271 OA
HETATM  107  H   UNK N   1      24.288  15.569   4.718  0.00  0.00     0.163 HD
BRANCH 105 108
HETATM  108  C   UNK N   1      20.912  15.341   4.827  0.00  0.00     0.176 C 
BRANCH 108 109
HETATM  109  C   UNK N   1      19.996  16.511   5.188  0.00  0.00     0.035 C 
BRANCH 109 110
HETATM  110  C   UNK N   1      19.321  16.291   6.530  0.00  0.00     0.004 C 
BRANCH 110 111
HETATM  111  C   UNK N   1      20.281  16.578   7.671  0.00  0.00     0.019 C 
BRANCH 111 112
HETATM  112  C   UNK N   1      19.609  17.419   8.745  0.00  0.00     0.111 C 
BRANCH 112 113
HETATM  113  N   UNK N   1      18.356  16.809   9.155  0.00  0.00    -0.430 N 
HETATM  114  H   UNK N   1      18.213  16.378  10.067  0.00  0.00     0.149 HD
HETATM  115  H   UNK N   1      17.578  16.811   8.494  0.00  0.00     0.149 HD
ENDBRANCH 112 113
ENDBRANCH 111 112
ENDBRANCH 110 111
ENDBRANCH 109 110
ENDBRANCH 108 109
BRANCH 108 116
HETATM  116  N   UNK N   1      20.455  14.744   3.593  0.00  0.00    -0.346 N 
HETATM  117  C   UNK N   1      19.469  13.813   3.522  0.00  0.00     0.240 C 
HETATM  118  O   UNK N   1      18.971  13.355   4.538  0.00  0.00    -0.271 OA
HETATM  119  H   UNK N   1      20.882  15.031   2.754  0.00  0.00     0.163 HD
BRANCH 117 120
HETATM  120  C   UNK N   1      19.004  13.341   2.173  0.00  0.00     0.167 C 
BRANCH 120 121
HETATM  121  C   UNK N   1      19.938  12.283   1.585  0.00  0.00     0.034 C 
BRANCH 121 122
HETATM  122  C   UNK N   1      20.688  12.759   0.354  0.00  0.00     0.004 C 
BRANCH 122 123
HETATM  123  C   UNK N   1      22.180  12.791   0.642  0.00  0.00     0.019 C 
BRANCH 123 124
HETATM  124  C   UNK N   1      22.661  14.217   0.854  0.00  0.00     0.111 C 
BRANCH 124 125
HETATM  125  N   UNK N   1      24.110  14.239   0.955  0.00  0.00    -0.430 N 
HETATM  126  H   UNK N   1      25.009  14.098   0.497  0.00  0.00     0.149 HD
HETATM  127  H   UNK N   1      24.322  14.520   1.913  0.00  0.00     0.149 HD
ENDBRANCH 124 125
ENDBRANCH 123 124
ENDBRANCH 122 123
ENDBRANCH 121 122
ENDBRANCH 120 121
BRANCH 120 128
HETATM  128  N   UNK N   1      18.790  14.436   1.240  0.00  0.00    -0.418 N 
HETATM  129  H   UNK N   1      18.160  15.109   0.802  0.00  0.00     0.150 HD
HETATM  130  H   UNK N   1      19.705  14.618   0.827  0.00  0.00     0.150 HD
ENDBRANCH 120 128
ENDBRANCH 117 120
ENDBRANCH 108 116
ENDBRANCH 105 108
ENDBRANCH  92 104
ENDBRANCH  89  92
ENDBRANCH  76  88
ENDBRANCH  73  76
ENDBRANCH   1  72
TORSDOF 52
ENDMDL
