MODEL 1
REMARK VINA RESULT:      -6.7      0.000      0.000
REMARK  8 active torsions:
REMARK  status: ('A' for Active; 'I' for Inactive)
REMARK    1  A    between atoms: C_3  and  O_23 
REMARK    2  A    between atoms: C_6  and  O_7 
REMARK    3  A    between atoms: O_7  and  C_8 
REMARK    4  A    between atoms: C_11  and  C_15 
REMARK    5  A    between atoms: C_15  and  C_16 
REMARK    6  A    between atoms: C_16  and  C_17 
REMARK    7  A    between atoms: C_16  and  N_20 
REMARK    8  A    between atoms: C_17  and  O_19 
ROOT
HETATM    1  C   UNK N   1      30.040  17.337   6.460  0.00  0.00     0.109 A 
HETATM    2  C   UNK N   1      29.062  17.985   7.280  0.00  0.00     0.042 A 
HETATM    3  C   UNK N   1      28.101  18.799   6.681  0.00  0.00     0.028 A 
HETATM    4  C   UNK N   1      28.059  18.999   5.309  0.00  0.00    -0.053 A 
HETATM    5  C   UNK N   1      28.990  18.351   4.494  0.00  0.00     0.028 A 
HETATM    6  C   UNK N   1      29.965  17.525   5.061  0.00  0.00     0.042 A 
HETATM    7  I   UNK N   1      31.305  16.525   3.764  0.00  0.00    -0.042 I 
HETATM    8  I   UNK N   1      28.749  17.762   9.369  0.00  0.00    -0.042 I 
ENDROOT
BRANCH   1   9
HETATM    9  O   UNK N   1      31.008  16.492   6.919  0.00  0.00    -0.308 OA
BRANCH   9  10
HETATM   10  C   UNK N   1      32.112  16.704   7.684  0.00  0.00     0.077 A 
HETATM   11  C   UNK N   1      32.559  15.783   8.643  0.00  0.00     0.058 A 
HETATM   12  C   UNK N   1      33.730  16.029   9.373  0.00  0.00     0.042 A 
HETATM   13  C   UNK N   1      34.438  17.223   9.173  0.00  0.00     0.082 A 
HETATM   14  I   UNK N   1      34.433  14.561  10.717  0.00  0.00    -0.042 I 
HETATM   15  C   UNK N   1      33.965  18.166   8.260  0.00  0.00     0.040 A 
HETATM   16  C   UNK N   1      32.808  17.906   7.520  0.00  0.00     0.040 A 
BRANCH  13  17
HETATM   17  O   UNK N   1      35.573  17.466   9.852  0.00  0.00    -0.359 OA
HETATM   18  H   UNK N   1      36.371  17.639   9.391  0.00  0.00     0.217 HD
ENDBRANCH  13  17
ENDBRANCH   9  10
ENDBRANCH   1   9
BRANCH   4  19
HETATM   19  C   UNK N   1      26.986  19.903   4.778  0.00  0.00     0.074 C 
BRANCH  19  20
HETATM   20  C   UNK N   1      25.767  19.237   4.144  0.00  0.00     0.177 C 
BRANCH  20  21
HETATM   21  C   UNK N   1      25.056  20.208   3.238  0.00  0.00     0.163 C 
HETATM   22  O   UNK N   1      25.683  20.799   2.375  0.00  0.00    -0.648 OA
BRANCH  21  23
HETATM   23  O   UNK N   1      23.736  20.444   3.379  0.00  0.00    -0.775 OA
HETATM   24  H   UNK N   1      23.330  20.526   4.220  0.00  0.00     0.167 HD
ENDBRANCH  21  23
ENDBRANCH  20  21
BRANCH  20  25
HETATM   25  N   UNK N   1      24.854  18.779   5.180  0.00  0.00    -0.417 N 
HETATM   26  H   UNK N   1      24.777  18.939   6.184  0.00  0.00     0.150 HD
HETATM   27  H   UNK N   1      24.127  18.159   4.820  0.00  0.00     0.150 HD
ENDBRANCH  20  25
ENDBRANCH  19  20
ENDBRANCH   4  19
TORSDOF 8
ENDMDL
MODEL 2
REMARK VINA RESULT:      -6.6      8.635     11.872
REMARK  8 active torsions:
REMARK  status: ('A' for Active; 'I' for Inactive)
REMARK    1  A    between atoms: C_3  and  O_23 
REMARK    2  A    between atoms: C_6  and  O_7 
REMARK    3  A    between atoms: O_7  and  C_8 
REMARK    4  A    between atoms: C_11  and  C_15 
REMARK    5  A    between atoms: C_15  and  C_16 
REMARK    6  A    between atoms: C_16  and  C_17 
REMARK    7  A    between atoms: C_16  and  N_20 
REMARK    8  A    between atoms: C_17  and  O_19 
ROOT
HETATM    1  C   UNK N   1      21.848  15.792   7.221  0.00  0.00     0.109 A 
HETATM    2  C   UNK N   1      20.842  15.546   8.209  0.00  0.00     0.042 A 
HETATM    3  C   UNK N   1      20.922  14.397   8.993  0.00  0.00     0.028 A 
HETATM    4  C   UNK N   1      21.953  13.479   8.851  0.00  0.00    -0.053 A 
HETATM    5  C   UNK N   1      22.958  13.721   7.910  0.00  0.00     0.028 A 
HETATM    6  C   UNK N   1      22.910  14.866   7.109  0.00  0.00     0.042 A 
HETATM    7  I   UNK N   1      24.496  15.200   5.748  0.00  0.00    -0.042 I 
HETATM    8  I   UNK N   1      19.239  16.814   8.790  0.00  0.00    -0.042 I 
ENDROOT
BRANCH   1   9
HETATM    9  O   UNK N   1      21.901  16.893   6.417  0.00  0.00    -0.308 OA
BRANCH   9  10
HETATM   10  C   UNK N   1      21.194  17.245   5.309  0.00  0.00     0.077 A 
HETATM   11  C   UNK N   1      21.409  18.450   4.624  0.00  0.00     0.058 A 
HETATM   12  C   UNK N   1      20.685  18.744   3.461  0.00  0.00     0.042 A 
HETATM   13  C   UNK N   1      19.711  17.847   3.000  0.00  0.00     0.082 A 
HETATM   14  I   UNK N   1      21.126  20.511   2.392  0.00  0.00    -0.042 I 
HETATM   15  C   UNK N   1      19.456  16.673   3.711  0.00  0.00     0.040 A 
HETATM   16  C   UNK N   1      20.195  16.376   4.860  0.00  0.00     0.040 A 
BRANCH  13  17
HETATM   17  O   UNK N   1      19.021  18.105   1.876  0.00  0.00    -0.359 OA
HETATM   18  H   UNK N   1      18.679  18.964   1.718  0.00  0.00     0.217 HD
ENDBRANCH  13  17
ENDBRANCH   9  10
ENDBRANCH   1   9
BRANCH   4  19
HETATM   19  C   UNK N   1      21.931  12.274   9.743  0.00  0.00     0.074 C 
BRANCH  19  20
HETATM   20  C   UNK N   1      21.777  12.522  11.242  0.00  0.00     0.177 C 
BRANCH  20  21
HETATM   21  C   UNK N   1      22.948  11.940  11.989  0.00  0.00     0.163 C 
HETATM   22  O   UNK N   1      24.068  12.012  11.509  0.00  0.00    -0.648 OA
BRANCH  21  23
HETATM   23  O   UNK N   1      22.775  11.325  13.177  0.00  0.00    -0.775 OA
HETATM   24  H   UNK N   1      22.705  10.394  13.250  0.00  0.00     0.167 HD
ENDBRANCH  21  23
ENDBRANCH  20  21
BRANCH  20  25
HETATM   25  N   UNK N   1      20.544  11.918  11.722  0.00  0.00    -0.417 N 
HETATM   26  H   UNK N   1      20.003  11.992  12.583  0.00  0.00     0.150 HD
HETATM   27  H   UNK N   1      20.127  11.278  11.046  0.00  0.00     0.150 HD
ENDBRANCH  20  25
ENDBRANCH  19  20
ENDBRANCH   4  19
TORSDOF 8
ENDMDL
MODEL 3
REMARK VINA RESULT:      -6.6      0.196      2.119
REMARK  8 active torsions:
REMARK  status: ('A' for Active; 'I' for Inactive)
REMARK    1  A    between atoms: C_3  and  O_23 
REMARK    2  A    between atoms: C_6  and  O_7 
REMARK    3  A    between atoms: O_7  and  C_8 
REMARK    4  A    between atoms: C_11  and  C_15 
REMARK    5  A    between atoms: C_15  and  C_16 
REMARK    6  A    between atoms: C_16  and  C_17 
REMARK    7  A    between atoms: C_16  and  N_20 
REMARK    8  A    between atoms: C_17  and  O_19 
ROOT
HETATM    1  C   UNK N   1      29.895  17.216   6.554  0.00  0.00     0.109 A 
HETATM    2  C   UNK N   1      29.950  17.429   5.139  0.00  0.00     0.042 A 
HETATM    3  C   UNK N   1      29.048  18.309   4.545  0.00  0.00     0.028 A 
HETATM    4  C   UNK N   1      28.094  18.994   5.284  0.00  0.00    -0.053 A 
HETATM    5  C   UNK N   1      28.047  18.819   6.669  0.00  0.00     0.028 A 
HETATM    6  C   UNK N   1      28.940  17.946   7.298  0.00  0.00     0.042 A 
HETATM    7  I   UNK N   1      28.852  17.774   9.405  0.00  0.00    -0.042 I 
HETATM    8  I   UNK N   1      31.375  16.672   3.756  0.00  0.00    -0.042 I 
ENDROOT
BRANCH   1   9
HETATM    9  O   UNK N   1      30.741  16.409   7.256  0.00  0.00    -0.308 OA
BRANCH   9  10
HETATM   10  C   UNK N   1      31.908  16.662   7.908  0.00  0.00     0.077 A 
HETATM   11  C   UNK N   1      32.461  15.777   8.844  0.00  0.00     0.058 A 
HETATM   12  C   UNK N   1      33.690  16.064   9.454  0.00  0.00     0.042 A 
HETATM   13  C   UNK N   1      34.351  17.264   9.158  0.00  0.00     0.082 A 
HETATM   14  I   UNK N   1      34.545  14.647  10.764  0.00  0.00    -0.042 I 
HETATM   15  C   UNK N   1      33.776  18.174   8.270  0.00  0.00     0.040 A 
HETATM   16  C   UNK N   1      32.560  17.872   7.649  0.00  0.00     0.040 A 
BRANCH  13  17
HETATM   17  O   UNK N   1      35.539  17.547   9.721  0.00  0.00    -0.359 OA
HETATM   18  H   UNK N   1      35.757  17.198  10.564  0.00  0.00     0.217 HD
ENDBRANCH  13  17
ENDBRANCH   9  10
ENDBRANCH   1   9
BRANCH   4  19
HETATM   19  C   UNK N   1      27.170  19.909   4.536  0.00  0.00     0.074 C 
BRANCH  19  20
HETATM   20  C   UNK N   1      25.842  19.322   4.065  0.00  0.00     0.177 C 
BRANCH  20  21
HETATM   21  C   UNK N   1      25.123  20.305   3.179  0.00  0.00     0.163 C 
HETATM   22  O   UNK N   1      25.733  20.875   2.289  0.00  0.00    -0.648 OA
BRANCH  21  23
HETATM   23  O   UNK N   1      23.815  20.576   3.365  0.00  0.00    -0.775 OA
HETATM   24  H   UNK N   1      23.216  19.936   3.697  0.00  0.00     0.167 HD
ENDBRANCH  21  23
ENDBRANCH  20  21
BRANCH  20  25
HETATM   25  N   UNK N   1      25.007  18.997   5.210  0.00  0.00    -0.417 N 
HETATM   26  H   UNK N   1      24.505  19.547   5.905  0.00  0.00     0.150 HD
HETATM   27  H   UNK N   1      24.898  17.991   5.347  0.00  0.00     0.150 HD
ENDBRANCH  20  25
ENDBRANCH  19  20
ENDBRANCH   4  19
TORSDOF 8
ENDMDL
MODEL 4
REMARK VINA RESULT:      -6.5      3.103      8.520
REMARK  8 active torsions:
REMARK  status: ('A' for Active; 'I' for Inactive)
REMARK    1  A    between atoms: C_3  and  O_23 
REMARK    2  A    between atoms: C_6  and  O_7 
REMARK    3  A    between atoms: O_7  and  C_8 
REMARK    4  A    between atoms: C_11  and  C_15 
REMARK    5  A    between atoms: C_15  and  C_16 
REMARK    6  A    between atoms: C_16  and  C_17 
REMARK    7  A    between atoms: C_16  and  N_20 
REMARK    8  A    between atoms: C_17  and  O_19 
ROOT
HETATM    1  C   UNK N   1      29.344  17.194   6.003  0.00  0.00     0.109 A 
HETATM    2  C   UNK N   1      30.312  16.861   5.002  0.00  0.00     0.042 A 
HETATM    3  C   UNK N   1      31.667  16.892   5.325  0.00  0.00     0.028 A 
HETATM    4  C   UNK N   1      32.113  17.233   6.594  0.00  0.00    -0.053 A 
HETATM    5  C   UNK N   1      31.179  17.533   7.589  0.00  0.00     0.028 A 
HETATM    6  C   UNK N   1      29.811  17.508   7.300  0.00  0.00     0.042 A 
HETATM    7  I   UNK N   1      28.451  17.913   8.869  0.00  0.00    -0.042 I 
HETATM    8  I   UNK N   1      29.963  16.145   3.032  0.00  0.00    -0.042 I 
ENDROOT
BRANCH   1   9
HETATM    9  O   UNK N   1      27.992  17.169   5.822  0.00  0.00    -0.308 OA
BRANCH   9  10
HETATM   10  C   UNK N   1      27.152  17.980   5.126  0.00  0.00     0.077 A 
HETATM   11  C   UNK N   1      25.781  17.718   4.992  0.00  0.00     0.058 A 
HETATM   12  C   UNK N   1      24.951  18.611   4.302  0.00  0.00     0.042 A 
HETATM   13  C   UNK N   1      25.500  19.754   3.705  0.00  0.00     0.082 A 
HETATM   14  I   UNK N   1      22.873  18.239   4.230  0.00  0.00    -0.042 I 
HETATM   15  C   UNK N   1      26.873  19.990   3.789  0.00  0.00     0.040 A 
HETATM   16  C   UNK N   1      27.693  19.106   4.496  0.00  0.00     0.040 A 
BRANCH  13  17
HETATM   17  O   UNK N   1      24.714  20.630   3.055  0.00  0.00    -0.359 OA
HETATM   18  H   UNK N   1      23.799  20.680   3.252  0.00  0.00     0.217 HD
ENDBRANCH  13  17
ENDBRANCH   9  10
ENDBRANCH   1   9
BRANCH   4  19
HETATM   19  C   UNK N   1      33.595  17.241   6.824  0.00  0.00     0.074 C 
BRANCH  19  20
HETATM   20  C   UNK N   1      34.091  16.751   8.182  0.00  0.00     0.177 C 
BRANCH  20  21
HETATM   21  C   UNK N   1      34.865  17.839   8.878  0.00  0.00     0.163 C 
HETATM   22  O   UNK N   1      35.364  17.622   9.970  0.00  0.00    -0.648 OA
BRANCH  21  23
HETATM   23  O   UNK N   1      35.001  19.058   8.317  0.00  0.00    -0.775 OA
HETATM   24  H   UNK N   1      34.405  19.758   8.496  0.00  0.00     0.167 HD
ENDBRANCH  21  23
ENDBRANCH  20  21
BRANCH  20  25
HETATM   25  N   UNK N   1      34.940  15.582   8.010  0.00  0.00    -0.417 N 
HETATM   26  H   UNK N   1      34.836  14.589   8.215  0.00  0.00     0.150 HD
HETATM   27  H   UNK N   1      35.842  15.807   7.589  0.00  0.00     0.150 HD
ENDBRANCH  20  25
ENDBRANCH  19  20
ENDBRANCH   4  19
TORSDOF 8
ENDMDL
MODEL 5
REMARK VINA RESULT:      -6.5      8.031     11.460
REMARK  8 active torsions:
REMARK  status: ('A' for Active; 'I' for Inactive)
REMARK    1  A    between atoms: C_3  and  O_23 
REMARK    2  A    between atoms: C_6  and  O_7 
REMARK    3  A    between atoms: O_7  and  C_8 
REMARK    4  A    between atoms: C_11  and  C_15 
REMARK    5  A    between atoms: C_15  and  C_16 
REMARK    6  A    between atoms: C_16  and  C_17 
REMARK    7  A    between atoms: C_16  and  N_20 
REMARK    8  A    between atoms: C_17  and  O_19 
ROOT
HETATM    1  C   UNK N   1      22.563  15.632   6.760  0.00  0.00     0.109 A 
HETATM    2  C   UNK N   1      21.582  15.324   7.756  0.00  0.00     0.042 A 
HETATM    3  C   UNK N   1      21.786  14.236   8.603  0.00  0.00     0.028 A 
HETATM    4  C   UNK N   1      22.919  13.439   8.516  0.00  0.00    -0.053 A 
HETATM    5  C   UNK N   1      23.899  13.744   7.568  0.00  0.00     0.028 A 
HETATM    6  C   UNK N   1      23.727  14.831   6.705  0.00  0.00     0.042 A 
HETATM    7  I   UNK N   1      25.278  15.273   5.335  0.00  0.00    -0.042 I 
HETATM    8  I   UNK N   1      19.836  16.425   8.258  0.00  0.00    -0.042 I 
ENDROOT
BRANCH   1   9
HETATM    9  O   UNK N   1      22.496  16.685   5.897  0.00  0.00    -0.308 OA
BRANCH   9  10
HETATM   10  C   UNK N   1      21.723  16.917   4.802  0.00  0.00     0.077 A 
HETATM   11  C   UNK N   1      21.414  15.919   3.867  0.00  0.00     0.058 A 
HETATM   12  C   UNK N   1      20.575  16.199   2.780  0.00  0.00     0.042 A 
HETATM   13  C   UNK N   1      20.072  17.495   2.603  0.00  0.00     0.082 A 
HETATM   14  I   UNK N   1      20.037  14.636   1.465  0.00  0.00    -0.042 I 
HETATM   15  C   UNK N   1      20.423  18.504   3.501  0.00  0.00     0.040 A 
HETATM   16  C   UNK N   1      21.244  18.215   4.594  0.00  0.00     0.040 A 
BRANCH  13  17
HETATM   17  O   UNK N   1      19.251  17.776   1.576  0.00  0.00    -0.359 OA
HETATM   18  H   UNK N   1      19.562  18.278   0.847  0.00  0.00     0.217 HD
ENDBRANCH  13  17
ENDBRANCH   9  10
ENDBRANCH   1   9
BRANCH   4  19
HETATM   19  C   UNK N   1      23.028  12.290   9.474  0.00  0.00     0.074 C 
BRANCH  19  20
HETATM   20  C   UNK N   1      22.683  12.568  10.935  0.00  0.00     0.177 C 
BRANCH  20  21
HETATM   21  C   UNK N   1      23.860  12.250  11.818  0.00  0.00     0.163 C 
HETATM   22  O   UNK N   1      23.675  11.918  12.977  0.00  0.00    -0.648 OA
BRANCH  21  23
HETATM   23  O   UNK N   1      25.122  12.343  11.349  0.00  0.00    -0.775 OA
HETATM   24  H   UNK N   1      25.589  13.155  11.333  0.00  0.00     0.167 HD
ENDBRANCH  21  23
ENDBRANCH  20  21
BRANCH  20  25
HETATM   25  N   UNK N   1      21.540  11.765  11.339  0.00  0.00    -0.417 N 
HETATM   26  H   UNK N   1      20.819  11.859  12.054  0.00  0.00     0.150 HD
HETATM   27  H   UNK N   1      21.435  10.917  10.781  0.00  0.00     0.150 HD
ENDBRANCH  20  25
ENDBRANCH  19  20
ENDBRANCH   4  19
TORSDOF 8
ENDMDL
MODEL 6
REMARK VINA RESULT:      -6.4      7.530      8.656
REMARK  8 active torsions:
REMARK  status: ('A' for Active; 'I' for Inactive)
REMARK    1  A    between atoms: C_3  and  O_23 
REMARK    2  A    between atoms: C_6  and  O_7 
REMARK    3  A    between atoms: O_7  and  C_8 
REMARK    4  A    between atoms: C_11  and  C_15 
REMARK    5  A    between atoms: C_15  and  C_16 
REMARK    6  A    between atoms: C_16  and  C_17 
REMARK    7  A    between atoms: C_16  and  N_20 
REMARK    8  A    between atoms: C_17  and  O_19 
ROOT
HETATM    1  C   UNK N   1      21.803  15.513   5.597  0.00  0.00     0.109 A 
HETATM    2  C   UNK N   1      22.423  15.686   4.318  0.00  0.00     0.042 A 
HETATM    3  C   UNK N   1      22.283  16.902   3.651  0.00  0.00     0.028 A 
HETATM    4  C   UNK N   1      21.562  17.958   4.191  0.00  0.00    -0.053 A 
HETATM    5  C   UNK N   1      20.976  17.813   5.450  0.00  0.00     0.028 A 
HETATM    6  C   UNK N   1      21.099  16.608   6.149  0.00  0.00     0.042 A 
HETATM    7  I   UNK N   1      20.238  16.477   8.077  0.00  0.00    -0.042 I 
HETATM    8  I   UNK N   1      23.716  14.345   3.297  0.00  0.00    -0.042 I 
ENDROOT
BRANCH   1   9
HETATM    9  O   UNK N   1      21.894  14.387   6.362  0.00  0.00    -0.308 OA
BRANCH   9  10
HETATM   10  C   UNK N   1      22.759  14.023   7.347  0.00  0.00     0.077 A 
HETATM   11  C   UNK N   1      22.339  13.420   8.541  0.00  0.00     0.058 A 
HETATM   12  C   UNK N   1      23.277  13.022   9.504  0.00  0.00     0.042 A 
HETATM   13  C   UNK N   1      24.641  13.266   9.291  0.00  0.00     0.082 A 
HETATM   14  I   UNK N   1      22.611  12.007  11.231  0.00  0.00    -0.042 I 
HETATM   15  C   UNK N   1      25.057  13.917   8.129  0.00  0.00     0.040 A 
HETATM   16  C   UNK N   1      24.119  14.293   7.163  0.00  0.00     0.040 A 
BRANCH  13  17
HETATM   17  O   UNK N   1      25.555  12.876  10.197  0.00  0.00    -0.359 OA
HETATM   18  H   UNK N   1      26.459  12.809   9.957  0.00  0.00     0.217 HD
ENDBRANCH  13  17
ENDBRANCH   9  10
ENDBRANCH   1   9
BRANCH   4  19
HETATM   19  C   UNK N   1      21.472  19.216   3.379  0.00  0.00     0.074 C 
BRANCH  19  20
HETATM   20  C   UNK N   1      20.660  19.154   2.088  0.00  0.00     0.177 C 
BRANCH  20  21
HETATM   21  C   UNK N   1      20.917  20.379   1.251  0.00  0.00     0.163 C 
HETATM   22  O   UNK N   1      21.425  21.364   1.761  0.00  0.00    -0.648 OA
BRANCH  21  23
HETATM   23  O   UNK N   1      20.578  20.408  -0.054  0.00  0.00    -0.775 OA
HETATM   24  H   UNK N   1      19.722  20.169  -0.352  0.00  0.00     0.167 HD
ENDBRANCH  21  23
ENDBRANCH  20  21
BRANCH  20  25
HETATM   25  N   UNK N   1      19.241  19.062   2.396  0.00  0.00    -0.417 N 
HETATM   26  H   UNK N   1      18.390  19.037   1.835  0.00  0.00     0.150 HD
HETATM   27  H   UNK N   1      19.057  19.012   3.398  0.00  0.00     0.150 HD
ENDBRANCH  20  25
ENDBRANCH  19  20
ENDBRANCH   4  19
TORSDOF 8
ENDMDL
MODEL 7
REMARK VINA RESULT:      -6.3      3.093      8.207
REMARK  8 active torsions:
REMARK  status: ('A' for Active; 'I' for Inactive)
REMARK    1  A    between atoms: C_3  and  O_23 
REMARK    2  A    between atoms: C_6  and  O_7 
REMARK    3  A    between atoms: O_7  and  C_8 
REMARK    4  A    between atoms: C_11  and  C_15 
REMARK    5  A    between atoms: C_15  and  C_16 
REMARK    6  A    between atoms: C_16  and  C_17 
REMARK    7  A    between atoms: C_16  and  N_20 
REMARK    8  A    between atoms: C_17  and  O_19 
ROOT
HETATM    1  C   UNK N   1      29.402  16.933   5.883  0.00  0.00     0.109 A 
HETATM    2  C   UNK N   1      29.872  17.434   7.139  0.00  0.00     0.042 A 
HETATM    3  C   UNK N   1      31.244  17.550   7.357  0.00  0.00     0.028 A 
HETATM    4  C   UNK N   1      32.175  17.199   6.390  0.00  0.00    -0.053 A 
HETATM    5  C   UNK N   1      31.730  16.735   5.149  0.00  0.00     0.028 A 
HETATM    6  C   UNK N   1      30.360  16.609   4.895  0.00  0.00     0.042 A 
HETATM    7  I   UNK N   1      29.756  15.960   2.975  0.00  0.00    -0.042 I 
HETATM    8  I   UNK N   1      28.726  18.206   8.753  0.00  0.00    -0.042 I 
ENDROOT
BRANCH   1   9
HETATM    9  O   UNK N   1      28.089  16.804   5.536  0.00  0.00    -0.308 OA
BRANCH   9  10
HETATM   10  C   UNK N   1      27.188  17.694   5.039  0.00  0.00     0.077 A 
HETATM   11  C   UNK N   1      25.811  17.433   4.993  0.00  0.00     0.058 A 
HETATM   12  C   UNK N   1      24.920  18.402   4.513  0.00  0.00     0.042 A 
HETATM   13  C   UNK N   1      25.410  19.626   4.037  0.00  0.00     0.082 A 
HETATM   14  I   UNK N   1      22.845  18.014   4.575  0.00  0.00    -0.042 I 
HETATM   15  C   UNK N   1      26.785  19.867   4.030  0.00  0.00     0.040 A 
HETATM   16  C   UNK N   1      27.668  18.904   4.528  0.00  0.00     0.040 A 
BRANCH  13  17
HETATM   17  O   UNK N   1      24.568  20.573   3.590  0.00  0.00    -0.359 OA
HETATM   18  H   UNK N   1      24.006  21.026   4.189  0.00  0.00     0.217 HD
ENDBRANCH  13  17
ENDBRANCH   9  10
ENDBRANCH   1   9
BRANCH   4  19
HETATM   19  C   UNK N   1      33.624  17.358   6.739  0.00  0.00     0.074 C 
BRANCH  19  20
HETATM   20  C   UNK N   1      34.082  16.791   8.081  0.00  0.00     0.177 C 
BRANCH  20  21
HETATM   21  C   UNK N   1      34.848  17.833   8.853  0.00  0.00     0.163 C 
HETATM   22  O   UNK N   1      35.315  17.555   9.945  0.00  0.00    -0.648 OA
BRANCH  21  23
HETATM   23  O   UNK N   1      35.011  19.078   8.360  0.00  0.00    -0.775 OA
HETATM   24  H   UNK N   1      35.442  19.754   8.845  0.00  0.00     0.167 HD
ENDBRANCH  21  23
ENDBRANCH  20  21
BRANCH  20  25
HETATM   25  N   UNK N   1      34.926  15.626   7.868  0.00  0.00    -0.417 N 
HETATM   26  H   UNK N   1      35.318  15.171   7.044  0.00  0.00     0.150 HD
HETATM   27  H   UNK N   1      35.183  15.159   8.738  0.00  0.00     0.150 HD
ENDBRANCH  20  25
ENDBRANCH  19  20
ENDBRANCH   4  19
TORSDOF 8
ENDMDL
MODEL 8
REMARK VINA RESULT:      -6.3      3.415      8.501
REMARK  8 active torsions:
REMARK  status: ('A' for Active; 'I' for Inactive)
REMARK    1  A    between atoms: C_3  and  O_23 
REMARK    2  A    between atoms: C_6  and  O_7 
REMARK    3  A    between atoms: O_7  and  C_8 
REMARK    4  A    between atoms: C_11  and  C_15 
REMARK    5  A    between atoms: C_15  and  C_16 
REMARK    6  A    between atoms: C_16  and  C_17 
REMARK    7  A    between atoms: C_16  and  N_20 
REMARK    8  A    between atoms: C_17  and  O_19 
ROOT
HETATM    1  C   UNK N   1      31.389  17.124   6.438  0.00  0.00     0.109 A 
HETATM    2  C   UNK N   1      31.323  17.183   7.867  0.00  0.00     0.042 A 
HETATM    3  C   UNK N   1      32.295  16.528   8.622  0.00  0.00     0.028 A 
HETATM    4  C   UNK N   1      33.333  15.821   8.032  0.00  0.00    -0.053 A 
HETATM    5  C   UNK N   1      33.425  15.779   6.638  0.00  0.00     0.028 A 
HETATM    6  C   UNK N   1      32.469  16.427   5.850  0.00  0.00     0.042 A 
HETATM    7  I   UNK N   1      32.704  16.373   3.748  0.00  0.00    -0.042 I 
HETATM    8  I   UNK N   1      29.977  18.301   9.071  0.00  0.00    -0.042 I 
ENDROOT
BRANCH   1   9
HETATM    9  O   UNK N   1      30.521  17.747   5.590  0.00  0.00    -0.308 OA
BRANCH   9  10
HETATM   10  C   UNK N   1      29.180  17.616   5.403  0.00  0.00     0.077 A 
HETATM   11  C   UNK N   1      28.381  18.650   4.894  0.00  0.00     0.058 A 
HETATM   12  C   UNK N   1      27.011  18.448   4.677  0.00  0.00     0.042 A 
HETATM   13  C   UNK N   1      26.427  17.218   5.008  0.00  0.00     0.082 A 
HETATM   14  I   UNK N   1      25.870  19.991   3.796  0.00  0.00    -0.042 I 
HETATM   15  C   UNK N   1      27.209  16.206   5.567  0.00  0.00     0.040 A 
HETATM   16  C   UNK N   1      28.578  16.406   5.762  0.00  0.00     0.040 A 
BRANCH  13  17
HETATM   17  O   UNK N   1      25.118  17.002   4.790  0.00  0.00    -0.359 OA
HETATM   18  H   UNK N   1      24.718  17.292   3.993  0.00  0.00     0.217 HD
ENDBRANCH  13  17
ENDBRANCH   9  10
ENDBRANCH   1   9
BRANCH   4  19
HETATM   19  C   UNK N   1      34.316  15.150   8.945  0.00  0.00     0.074 C 
BRANCH  19  20
HETATM   20  C   UNK N   1      34.421  15.688  10.369  0.00  0.00     0.177 C 
BRANCH  20  21
HETATM   21  C   UNK N   1      35.628  16.577  10.503  0.00  0.00     0.163 C 
HETATM   22  O   UNK N   1      35.549  17.755  10.192  0.00  0.00    -0.648 OA
BRANCH  21  23
HETATM   23  O   UNK N   1      36.803  16.086  10.947  0.00  0.00    -0.775 OA
HETATM   24  H   UNK N   1      37.432  16.622  11.390  0.00  0.00     0.167 HD
ENDBRANCH  21  23
ENDBRANCH  20  21
BRANCH  20  25
HETATM   25  N   UNK N   1      34.521  14.585  11.312  0.00  0.00    -0.417 N 
HETATM   26  H   UNK N   1      33.914  14.214  12.042  0.00  0.00     0.150 HD
HETATM   27  H   UNK N   1      35.395  14.066  11.222  0.00  0.00     0.150 HD
ENDBRANCH  20  25
ENDBRANCH  19  20
ENDBRANCH   4  19
TORSDOF 8
ENDMDL
MODEL 9
REMARK VINA RESULT:      -6.2      3.133      4.628
REMARK  8 active torsions:
REMARK  status: ('A' for Active; 'I' for Inactive)
REMARK    1  A    between atoms: C_3  and  O_23 
REMARK    2  A    between atoms: C_6  and  O_7 
REMARK    3  A    between atoms: O_7  and  C_8 
REMARK    4  A    between atoms: C_11  and  C_15 
REMARK    5  A    between atoms: C_15  and  C_16 
REMARK    6  A    between atoms: C_16  and  C_17 
REMARK    7  A    between atoms: C_16  and  N_20 
REMARK    8  A    between atoms: C_17  and  O_19 
ROOT
HETATM    1  C   UNK N   1      26.223  17.079   5.194  0.00  0.00     0.109 A 
HETATM    2  C   UNK N   1      25.894  18.408   4.775  0.00  0.00     0.042 A 
HETATM    3  C   UNK N   1      24.554  18.778   4.667  0.00  0.00     0.028 A 
HETATM    4  C   UNK N   1      23.523  17.896   4.958  0.00  0.00    -0.053 A 
HETATM    5  C   UNK N   1      23.829  16.605   5.394  0.00  0.00     0.028 A 
HETATM    6  C   UNK N   1      25.162  16.203   5.517  0.00  0.00     0.042 A 
HETATM    7  I   UNK N   1      25.555  14.254   6.242  0.00  0.00    -0.042 I 
HETATM    8  I   UNK N   1      27.215  20.033   4.417  0.00  0.00    -0.042 I 
ENDROOT
BRANCH   1   9
HETATM    9  O   UNK N   1      27.491  16.608   5.370  0.00  0.00    -0.308 OA
BRANCH   9  10
HETATM   10  C   UNK N   1      28.449  16.895   6.292  0.00  0.00     0.077 A 
HETATM   11  C   UNK N   1      29.819  16.773   6.025  0.00  0.00     0.058 A 
HETATM   12  C   UNK N   1      30.767  17.126   6.996  0.00  0.00     0.042 A 
HETATM   13  C   UNK N   1      30.342  17.566   8.257  0.00  0.00     0.082 A 
HETATM   14  I   UNK N   1      32.820  17.044   6.510  0.00  0.00    -0.042 I 
HETATM   15  C   UNK N   1      28.978  17.635   8.545  0.00  0.00     0.040 A 
HETATM   16  C   UNK N   1      28.038  17.301   7.566  0.00  0.00     0.040 A 
BRANCH  13  17
HETATM   17  O   UNK N   1      31.237  17.925   9.194  0.00  0.00    -0.359 OA
HETATM   18  H   UNK N   1      32.059  18.299   8.942  0.00  0.00     0.217 HD
ENDBRANCH  13  17
ENDBRANCH   9  10
ENDBRANCH   1   9
BRANCH   4  19
HETATM   19  C   UNK N   1      22.120  18.402   4.798  0.00  0.00     0.074 C 
BRANCH  19  20
HETATM   20  C   UNK N   1      21.669  18.767   3.385  0.00  0.00     0.177 C 
BRANCH  20  21
HETATM   21  C   UNK N   1      21.329  20.232   3.309  0.00  0.00     0.163 C 
HETATM   22  O   UNK N   1      20.248  20.623   3.718  0.00  0.00    -0.648 OA
BRANCH  21  23
HETATM   23  O   UNK N   1      22.197  21.117   2.780  0.00  0.00    -0.775 OA
HETATM   24  H   UNK N   1      22.689  21.711   3.312  0.00  0.00     0.167 HD
ENDBRANCH  21  23
ENDBRANCH  20  21
BRANCH  20  25
HETATM   25  N   UNK N   1      20.507  17.976   3.013  0.00  0.00    -0.417 N 
HETATM   26  H   UNK N   1      19.505  18.059   3.181  0.00  0.00     0.150 HD
HETATM   27  H   UNK N   1      20.748  17.154   2.458  0.00  0.00     0.150 HD
ENDBRANCH  20  25
ENDBRANCH  19  20
ENDBRANCH   4  19
TORSDOF 8
ENDMDL
