MODEL 1
REMARK VINA RESULT:      -7.6      0.000      0.000
REMARK  6 active torsions:
REMARK  status: ('A' for Active; 'I' for Inactive)
REMARK    1  A    between atoms: C_2  and  N_3 
REMARK    2  A    between atoms: C_2  and  C_20 
REMARK    3  A    between atoms: N_6  and  C_9 
REMARK    4  A    between atoms: C_13  and  C_16 
REMARK       I    between atoms: C_20  and  N_22 
REMARK    5  A    between atoms: C_23  and  N_22 
REMARK    6  A    between atoms: C_26  and  C_33 
REMARK       I    between atoms: C_33  and  N_35 
ROOT
HETATM    1  C   UNK N   1      29.974  19.529  -9.100  0.00  0.00     0.059 C 
HETATM    2  C   UNK N   1      30.051  20.915  -8.462  0.00  0.00     0.232 C 
HETATM    3  C   UNK N   1      31.029  21.675  -9.348  0.00  0.00     0.059 C 
ENDROOT
BRANCH   2   4
HETATM    4  N   UNK N   1      28.693  21.494  -8.529  0.00  0.00     0.110 N 
HETATM    5  C   UNK N   1      27.600  20.531  -8.338  0.00  0.00     0.294 C 
HETATM    6  C   UNK N   1      26.281  21.294  -8.120  0.00  0.00     0.154 C 
HETATM    7  N   UNK N   1      26.399  22.634  -8.668  0.00  0.00    -0.364 N 
HETATM    8  C   UNK N   1      27.069  22.786  -9.934  0.00  0.00     0.154 C 
HETATM    9  C   UNK N   1      28.493  22.247  -9.792  0.00  0.00     0.294 C 
BRANCH   7  10
HETATM   10  C   UNK N   1      26.117  23.779  -7.871  0.00  0.00     0.103 A 
HETATM   11  N   UNK N   1      25.741  23.638  -6.571  0.00  0.00    -0.352 N 
HETATM   12  C   UNK N   1      25.478  24.718  -5.783  0.00  0.00     0.106 A 
ATOM     13  HN  UNK N   1      25.655  22.702  -6.176  1.00  0.00     0.166 HD
HETATM   14  C   UNK N   1      25.587  26.015  -6.303  0.00  0.00     0.063 A 
HETATM   15  C   UNK N   1      25.979  26.181  -7.632  0.00  0.00     0.021 A 
HETATM   16  C   UNK N   1      26.249  25.066  -8.418  0.00  0.00     0.049 A 
BRANCH  14  17
HETATM   17  C   UNK N   1      25.270  27.218  -5.466  0.00  0.00     0.418 C 
HETATM   18  F   UNK N   1      26.108  28.256  -5.831  0.00  0.00    -0.166 F 
HETATM   19  F   UNK N   1      23.957  27.619  -5.647  0.00  0.00    -0.166 F 
HETATM   20  F   UNK N   1      25.468  26.923  -4.129  0.00  0.00    -0.166 F 
ENDBRANCH  14  17
ENDBRANCH   7  10
ENDBRANCH   2   4
BRANCH   2  21
HETATM   21  C   UNK N   1      30.522  20.775  -7.007  0.00  0.00     0.256 C 
HETATM   22  O   UNK N   1      30.763  19.656  -6.581  0.00  0.00    -0.271 OA
HETATM   23  N   UNK N   1      30.605  21.807  -6.129  0.00  0.00    -0.353 N 
HETATM   24  H   UNK N   1      30.629  21.552  -5.179  0.00  0.00     0.163 HD
BRANCH  23  25
HETATM   25  C   UNK N   1      30.662  23.233  -6.392  0.00  0.00     0.092 C 
HETATM   26  C   UNK N   1      29.282  23.812  -5.990  0.00  0.00     0.010 C 
HETATM   27  C   UNK N   1      29.280  25.351  -6.022  0.00  0.00     0.011 C 
HETATM   28  C   UNK N   1      28.953  23.359  -4.557  0.00  0.00     0.026 C 
HETATM   29  C   UNK N   1      30.324  25.895  -5.036  0.00  0.00    -0.013 C 
HETATM   30  C   UNK N   1      31.700  25.389  -5.488  0.00  0.00     0.011 C 
HETATM   31  C   UNK N   1      30.020  25.392  -3.602  0.00  0.00     0.024 C 
HETATM   32  C   UNK N   1      31.725  23.853  -5.445  0.00  0.00     0.010 C 
HETATM   33  C   UNK N   1      31.440  23.394  -4.010  0.00  0.00     0.026 C 
HETATM   34  C   UNK N   1      30.036  23.850  -3.575  0.00  0.00     0.042 C 
BRANCH  34  35
HETATM   35  C   UNK N   1      29.757  23.242  -2.224  0.00  0.00     0.224 C 
HETATM   36  O   UNK N   1      30.692  22.937  -1.496  0.00  0.00    -0.273 OA
HETATM   37  N   UNK N   1      28.495  23.036  -1.801  0.00  0.00    -0.369 N 
HETATM   38  H   UNK N   1      27.731  23.363  -2.328  0.00  0.00     0.159 HD
HETATM   39  H   UNK N   1      28.336  22.554  -0.958  0.00  0.00     0.159 HD
ENDBRANCH  34  35
ENDBRANCH  23  25
ENDBRANCH   2  21
TORSDOF 6
ENDMDL
MODEL 2
REMARK VINA RESULT:      -7.5     17.075     20.458
REMARK  6 active torsions:
REMARK  status: ('A' for Active; 'I' for Inactive)
REMARK    1  A    between atoms: C_2  and  N_3 
REMARK    2  A    between atoms: C_2  and  C_20 
REMARK    3  A    between atoms: N_6  and  C_9 
REMARK    4  A    between atoms: C_13  and  C_16 
REMARK       I    between atoms: C_20  and  N_22 
REMARK    5  A    between atoms: C_23  and  N_22 
REMARK    6  A    between atoms: C_26  and  C_33 
REMARK       I    between atoms: C_33  and  N_35 
ROOT
HETATM    1  C   UNK N   1      35.459  13.047   9.195  0.00  0.00     0.059 C 
HETATM    2  C   UNK N   1      35.372  14.369   9.957  0.00  0.00     0.232 C 
HETATM    3  C   UNK N   1      36.822  14.708  10.273  0.00  0.00     0.059 C 
ENDROOT
BRANCH   2   4
HETATM    4  N   UNK N   1      34.771  15.356   9.035  0.00  0.00     0.110 N 
HETATM    5  C   UNK N   1      35.082  15.146   7.615  0.00  0.00     0.294 C 
HETATM    6  C   UNK N   1      34.161  16.030   6.756  0.00  0.00     0.154 C 
HETATM    7  N   UNK N   1      33.663  17.135   7.556  0.00  0.00    -0.364 N 
HETATM    8  C   UNK N   1      34.584  17.785   8.451  0.00  0.00     0.154 C 
HETATM    9  C   UNK N   1      35.117  16.742   9.434  0.00  0.00     0.294 C 
BRANCH   7  10
HETATM   10  C   UNK N   1      32.267  17.390   7.664  0.00  0.00     0.103 A 
HETATM   11  N   UNK N   1      31.757  17.976   8.782  0.00  0.00    -0.352 N 
HETATM   12  C   UNK N   1      30.428  18.243   8.906  0.00  0.00     0.106 A 
ATOM     13  HN  UNK N   1      32.387  18.222   9.546  1.00  0.00     0.166 HD
HETATM   14  C   UNK N   1      29.542  17.913   7.871  0.00  0.00     0.063 A 
HETATM   15  C   UNK N   1      30.045  17.319   6.712  0.00  0.00     0.021 A 
HETATM   16  C   UNK N   1      31.407  17.060   6.603  0.00  0.00     0.049 A 
BRANCH  14  17
HETATM   17  C   UNK N   1      28.069  18.164   7.997  0.00  0.00     0.418 C 
HETATM   18  F   UNK N   1      27.708  18.069   9.329  0.00  0.00    -0.166 F 
HETATM   19  F   UNK N   1      27.738  19.426   7.534  0.00  0.00    -0.166 F 
HETATM   20  F   UNK N   1      27.369  17.220   7.268  0.00  0.00    -0.166 F 
ENDBRANCH  14  17
ENDBRANCH   7  10
ENDBRANCH   2   4
BRANCH   2  21
HETATM   21  C   UNK N   1      34.500  14.174  11.205  0.00  0.00     0.256 C 
HETATM   22  O   UNK N   1      33.525  14.896  11.350  0.00  0.00    -0.271 OA
HETATM   23  N   UNK N   1      34.789  13.310  12.211  0.00  0.00    -0.353 N 
HETATM   24  H   UNK N   1      34.333  13.487  13.065  0.00  0.00     0.163 HD
BRANCH  23  25
HETATM   25  C   UNK N   1      35.675  12.160  12.207  0.00  0.00     0.092 C 
HETATM   26  C   UNK N   1      36.886  12.533  13.100  0.00  0.00     0.010 C 
HETATM   27  C   UNK N   1      37.801  11.322  13.350  0.00  0.00     0.011 C 
HETATM   28  C   UNK N   1      36.363  13.032  14.459  0.00  0.00     0.026 C 
HETATM   29  C   UNK N   1      37.016  10.210  14.061  0.00  0.00    -0.013 C 
HETATM   30  C   UNK N   1      35.869   9.785  13.136  0.00  0.00     0.011 C 
HETATM   31  C   UNK N   1      36.445  10.734  15.404  0.00  0.00     0.024 C 
HETATM   32  C   UNK N   1      34.934  10.980  12.889  0.00  0.00     0.010 C 
HETATM   33  C   UNK N   1      34.375  11.456  14.235  0.00  0.00     0.026 C 
HETATM   34  C   UNK N   1      35.519  11.939  15.145  0.00  0.00     0.042 C 
BRANCH  34  35
HETATM   35  C   UNK N   1      34.897  12.532  16.383  0.00  0.00     0.224 C 
HETATM   36  O   UNK N   1      34.023  13.381  16.272  0.00  0.00    -0.273 OA
HETATM   37  N   UNK N   1      35.281  12.137  17.612  0.00  0.00    -0.369 N 
HETATM   38  H   UNK N   1      35.911  11.388  17.723  0.00  0.00     0.159 HD
HETATM   39  H   UNK N   1      34.931  12.601  18.406  0.00  0.00     0.159 HD
ENDBRANCH  34  35
ENDBRANCH  23  25
ENDBRANCH   2  21
TORSDOF 6
ENDMDL
MODEL 3
REMARK VINA RESULT:      -7.5     12.590     14.666
REMARK  6 active torsions:
REMARK  status: ('A' for Active; 'I' for Inactive)
REMARK    1  A    between atoms: C_2  and  N_3 
REMARK    2  A    between atoms: C_2  and  C_20 
REMARK    3  A    between atoms: N_6  and  C_9 
REMARK    4  A    between atoms: C_13  and  C_16 
REMARK       I    between atoms: C_20  and  N_22 
REMARK    5  A    between atoms: C_23  and  N_22 
REMARK    6  A    between atoms: C_26  and  C_33 
REMARK       I    between atoms: C_33  and  N_35 
ROOT
HETATM    1  C   UNK N   1      30.936  12.792   3.103  0.00  0.00     0.059 C 
HETATM    2  C   UNK N   1      31.062  14.009   4.020  0.00  0.00     0.232 C 
HETATM    3  C   UNK N   1      32.035  14.922   3.287  0.00  0.00     0.059 C 
ENDROOT
BRANCH   2   4
HETATM    4  N   UNK N   1      29.717  14.613   4.118  0.00  0.00     0.110 N 
HETATM    5  C   UNK N   1      28.696  13.753   4.733  0.00  0.00     0.294 C 
HETATM    6  C   UNK N   1      27.449  14.595   5.055  0.00  0.00     0.154 C 
HETATM    7  N   UNK N   1      27.438  15.787   4.225  0.00  0.00    -0.364 N 
HETATM    8  C   UNK N   1      27.823  15.647   2.844  0.00  0.00     0.154 C 
HETATM    9  C   UNK N   1      29.248  15.095   2.795  0.00  0.00     0.294 C 
BRANCH   7  10
HETATM   10  C   UNK N   1      27.325  17.082   4.803  0.00  0.00     0.103 A 
HETATM   11  N   UNK N   1      26.366  17.948   4.374  0.00  0.00    -0.352 N 
HETATM   12  C   UNK N   1      26.228  19.188   4.919  0.00  0.00     0.106 A 
ATOM     13  HN  UNK N   1      25.735  17.660   3.626  1.00  0.00     0.166 HD
HETATM   14  C   UNK N   1      27.084  19.607   5.947  0.00  0.00     0.063 A 
HETATM   15  C   UNK N   1      28.069  18.732   6.407  0.00  0.00     0.021 A 
HETATM   16  C   UNK N   1      28.190  17.467   5.841  0.00  0.00     0.049 A 
BRANCH  14  17
HETATM   17  C   UNK N   1      26.975  20.980   6.539  0.00  0.00     0.418 C 
HETATM   18  F   UNK N   1      26.598  20.871   7.866  0.00  0.00    -0.166 F 
HETATM   19  F   UNK N   1      28.184  21.650   6.472  0.00  0.00    -0.166 F 
HETATM   20  F   UNK N   1      26.019  21.710   5.855  0.00  0.00    -0.166 F 
ENDBRANCH  14  17
ENDBRANCH   7  10
ENDBRANCH   2   4
BRANCH   2  21
HETATM   21  C   UNK N   1      31.566  13.553   5.396  0.00  0.00     0.256 C 
HETATM   22  O   UNK N   1      31.781  12.362   5.570  0.00  0.00    -0.271 OA
HETATM   23  N   UNK N   1      31.707  14.373   6.468  0.00  0.00    -0.353 N 
HETATM   24  H   UNK N   1      31.748  13.924   7.342  0.00  0.00     0.163 HD
BRANCH  23  25
HETATM   25  C   UNK N   1      31.806  15.821   6.508  0.00  0.00     0.092 C 
HETATM   26  C   UNK N   1      31.372  16.254   7.932  0.00  0.00     0.010 C 
HETATM   27  C   UNK N   1      31.633  17.751   8.175  0.00  0.00     0.011 C 
HETATM   28  C   UNK N   1      32.184  15.449   8.963  0.00  0.00     0.026 C 
HETATM   29  C   UNK N   1      33.131  18.052   8.027  0.00  0.00    -0.013 C 
HETATM   30  C   UNK N   1      33.537  17.702   6.590  0.00  0.00     0.011 C 
HETATM   31  C   UNK N   1      33.949  17.199   9.030  0.00  0.00     0.024 C 
HETATM   32  C   UNK N   1      33.300  16.205   6.336  0.00  0.00     0.010 C 
HETATM   33  C   UNK N   1      34.139  15.396   7.332  0.00  0.00     0.026 C 
HETATM   34  C   UNK N   1      33.694  15.700   8.773  0.00  0.00     0.042 C 
BRANCH  34  35
HETATM   35  C   UNK N   1      34.445  14.768   9.689  0.00  0.00     0.224 C 
HETATM   36  O   UNK N   1      35.599  14.460   9.421  0.00  0.00    -0.273 OA
HETATM   37  N   UNK N   1      33.871  14.274  10.802  0.00  0.00    -0.369 N 
HETATM   38  H   UNK N   1      32.981  14.585  11.086  0.00  0.00     0.159 HD
HETATM   39  H   UNK N   1      34.343  13.596  11.336  0.00  0.00     0.159 HD
ENDBRANCH  34  35
ENDBRANCH  23  25
ENDBRANCH   2  21
TORSDOF 6
ENDMDL
MODEL 4
REMARK VINA RESULT:      -7.3      1.674      2.269
REMARK  6 active torsions:
REMARK  status: ('A' for Active; 'I' for Inactive)
REMARK    1  A    between atoms: C_2  and  N_3 
REMARK    2  A    between atoms: C_2  and  C_20 
REMARK    3  A    between atoms: N_6  and  C_9 
REMARK    4  A    between atoms: C_13  and  C_16 
REMARK       I    between atoms: C_20  and  N_22 
REMARK    5  A    between atoms: C_23  and  N_22 
REMARK    6  A    between atoms: C_26  and  C_33 
REMARK       I    between atoms: C_33  and  N_35 
ROOT
HETATM    1  C   UNK N   1      28.070  21.189 -10.160  0.00  0.00     0.059 C 
HETATM    2  C   UNK N   1      28.652  22.185  -9.157  0.00  0.00     0.232 C 
HETATM    3  C   UNK N   1      29.920  22.689  -9.833  0.00  0.00     0.059 C 
ENDROOT
BRANCH   2   4
HETATM    4  N   UNK N   1      27.655  23.265  -8.998  0.00  0.00     0.110 N 
HETATM    5  C   UNK N   1      26.258  22.848  -9.175  0.00  0.00     0.294 C 
HETATM    6  C   UNK N   1      25.326  23.970  -8.682  0.00  0.00     0.154 C 
HETATM    7  N   UNK N   1      26.040  25.234  -8.691  0.00  0.00    -0.364 N 
HETATM    8  C   UNK N   1      26.901  25.512  -9.810  0.00  0.00     0.154 C 
HETATM    9  C   UNK N   1      27.961  24.413  -9.886  0.00  0.00     0.294 C 
BRANCH   7  10
HETATM   10  C   UNK N   1      26.110  26.044  -7.522  0.00  0.00     0.103 A 
HETATM   11  N   UNK N   1      25.289  25.800  -6.464  0.00  0.00    -0.352 N 
HETATM   12  C   UNK N   1      25.344  26.551  -5.329  0.00  0.00     0.106 A 
ATOM     13  HN  UNK N   1      24.618  25.035  -6.521  1.00  0.00     0.166 HD
HETATM   14  C   UNK N   1      26.258  27.610  -5.227  0.00  0.00     0.063 A 
HETATM   15  C   UNK N   1      27.113  27.872  -6.298  0.00  0.00     0.021 A 
HETATM   16  C   UNK N   1      27.045  27.089  -7.446  0.00  0.00     0.049 A 
BRANCH  14  17
HETATM   17  C   UNK N   1      26.314  28.474  -4.003  0.00  0.00     0.418 C 
HETATM   18  F   UNK N   1      25.320  28.078  -3.126  0.00  0.00    -0.166 F 
HETATM   19  F   UNK N   1      27.540  28.362  -3.370  0.00  0.00    -0.166 F 
HETATM   20  F   UNK N   1      26.109  29.796  -4.354  0.00  0.00    -0.166 F 
ENDBRANCH  14  17
ENDBRANCH   7  10
ENDBRANCH   2   4
BRANCH   2  21
HETATM   21  C   UNK N   1      28.910  21.468  -7.825  0.00  0.00     0.256 C 
HETATM   22  O   UNK N   1      29.096  20.260  -7.843  0.00  0.00    -0.271 OA
HETATM   23  N   UNK N   1      28.856  22.071  -6.610  0.00  0.00    -0.353 N 
HETATM   24  H   UNK N   1      28.745  21.465  -5.842  0.00  0.00     0.163 HD
BRANCH  23  25
HETATM   25  C   UNK N   1      28.939  23.482  -6.282  0.00  0.00     0.092 C 
HETATM   26  C   UNK N   1      28.388  23.634  -4.842  0.00  0.00     0.010 C 
HETATM   27  C   UNK N   1      28.615  25.053  -4.293  0.00  0.00     0.011 C 
HETATM   28  C   UNK N   1      29.120  22.639  -3.924  0.00  0.00     0.026 C 
HETATM   29  C   UNK N   1      30.117  25.367  -4.258  0.00  0.00    -0.013 C 
HETATM   30  C   UNK N   1      30.641  25.300  -5.698  0.00  0.00     0.011 C 
HETATM   31  C   UNK N   1      30.859  24.330  -3.376  0.00  0.00     0.024 C 
HETATM   32  C   UNK N   1      30.438  23.881  -6.256  0.00  0.00     0.010 C 
HETATM   33  C   UNK N   1      31.201  22.889  -5.371  0.00  0.00     0.026 C 
HETATM   34  C   UNK N   1      30.639  22.911  -3.939  0.00  0.00     0.042 C 
BRANCH  34  35
HETATM   35  C   UNK N   1      31.322  21.814  -3.164  0.00  0.00     0.224 C 
HETATM   36  O   UNK N   1      31.900  22.083  -2.119  0.00  0.00    -0.273 OA
HETATM   37  N   UNK N   1      31.300  20.539  -3.597  0.00  0.00    -0.369 N 
HETATM   38  H   UNK N   1      30.759  20.286  -4.380  0.00  0.00     0.159 HD
HETATM   39  H   UNK N   1      31.828  19.854  -3.128  0.00  0.00     0.159 HD
ENDBRANCH  34  35
ENDBRANCH  23  25
ENDBRANCH   2  21
TORSDOF 6
ENDMDL
MODEL 5
REMARK VINA RESULT:      -7.2     12.528     14.970
REMARK  6 active torsions:
REMARK  status: ('A' for Active; 'I' for Inactive)
REMARK    1  A    between atoms: C_2  and  N_3 
REMARK    2  A    between atoms: C_2  and  C_20 
REMARK    3  A    between atoms: N_6  and  C_9 
REMARK    4  A    between atoms: C_13  and  C_16 
REMARK       I    between atoms: C_20  and  N_22 
REMARK    5  A    between atoms: C_23  and  N_22 
REMARK    6  A    between atoms: C_26  and  C_33 
REMARK       I    between atoms: C_33  and  N_35 
ROOT
HETATM    1  C   UNK N   1      28.383  12.775   1.922  0.00  0.00     0.059 C 
HETATM    2  C   UNK N   1      28.444  13.557   3.234  0.00  0.00     0.232 C 
HETATM    3  C   UNK N   1      27.700  12.672   4.225  0.00  0.00     0.059 C 
ENDROOT
BRANCH   2   4
HETATM    4  N   UNK N   1      29.873  13.689   3.588  0.00  0.00     0.110 N 
HETATM    5  C   UNK N   1      30.785  13.809   2.443  0.00  0.00     0.294 C 
HETATM    6  C   UNK N   1      32.173  14.248   2.944  0.00  0.00     0.154 C 
HETATM    7  N   UNK N   1      32.312  13.913   4.349  0.00  0.00    -0.364 N 
HETATM    8  C   UNK N   1      31.805  12.639   4.790  0.00  0.00     0.154 C 
HETATM    9  C   UNK N   1      30.310  12.582   4.474  0.00  0.00     0.294 C 
BRANCH   7  10
HETATM   10  C   UNK N   1      32.678  14.902   5.306  0.00  0.00     0.103 A 
HETATM   11  N   UNK N   1      32.691  14.605   6.634  0.00  0.00    -0.352 N 
HETATM   12  C   UNK N   1      33.049  15.528   7.569  0.00  0.00     0.106 A 
ATOM     13  HN  UNK N   1      32.427  13.667   6.937  1.00  0.00     0.166 HD
HETATM   14  C   UNK N   1      33.414  16.824   7.178  0.00  0.00     0.063 A 
HETATM   15  C   UNK N   1      33.415  17.146   5.820  0.00  0.00     0.021 A 
HETATM   16  C   UNK N   1      33.052  16.187   4.880  0.00  0.00     0.049 A 
BRANCH  14  17
HETATM   17  C   UNK N   1      33.778  17.868   8.190  0.00  0.00     0.418 C 
HETATM   18  F   UNK N   1      32.742  18.778   8.293  0.00  0.00    -0.166 F 
HETATM   19  F   UNK N   1      34.000  17.302   9.433  0.00  0.00    -0.166 F 
HETATM   20  F   UNK N   1      34.925  18.530   7.788  0.00  0.00    -0.166 F 
ENDBRANCH  14  17
ENDBRANCH   7  10
ENDBRANCH   2   4
BRANCH   2  21
HETATM   21  C   UNK N   1      27.794  14.933   3.031  0.00  0.00     0.256 C 
HETATM   22  O   UNK N   1      27.226  15.156   1.972  0.00  0.00    -0.271 OA
HETATM   23  N   UNK N   1      27.884  15.958   3.916  0.00  0.00    -0.353 N 
HETATM   24  H   UNK N   1      27.689  16.850   3.551  0.00  0.00     0.163 HD
BRANCH  23  25
HETATM   25  C   UNK N   1      28.226  15.924   5.327  0.00  0.00     0.092 C 
HETATM   26  C   UNK N   1      29.430  16.883   5.511  0.00  0.00     0.010 C 
HETATM   27  C   UNK N   1      29.759  17.102   6.999  0.00  0.00     0.011 C 
HETATM   28  C   UNK N   1      29.077  18.246   4.890  0.00  0.00     0.026 C 
HETATM   29  C   UNK N   1      28.550  17.719   7.717  0.00  0.00    -0.013 C 
HETATM   30  C   UNK N   1      27.386  16.728   7.605  0.00  0.00     0.011 C 
HETATM   31  C   UNK N   1      28.165  19.066   7.053  0.00  0.00     0.024 C 
HETATM   32  C   UNK N   1      27.031  16.512   6.124  0.00  0.00     0.010 C 
HETATM   33  C   UNK N   1      26.637  17.859   5.510  0.00  0.00     0.026 C 
HETATM   34  C   UNK N   1      27.824  18.838   5.567  0.00  0.00     0.042 C 
BRANCH  34  35
HETATM   35  C   UNK N   1      27.425  20.082   4.815  0.00  0.00     0.224 C 
HETATM   36  O   UNK N   1      27.068  21.074   5.436  0.00  0.00    -0.273 OA
HETATM   37  N   UNK N   1      27.463  20.123   3.469  0.00  0.00    -0.369 N 
HETATM   38  H   UNK N   1      27.839  19.372   2.956  0.00  0.00     0.159 HD
HETATM   39  H   UNK N   1      27.111  20.910   2.995  0.00  0.00     0.159 HD
ENDBRANCH  34  35
ENDBRANCH  23  25
ENDBRANCH   2  21
TORSDOF 6
ENDMDL
MODEL 6
REMARK VINA RESULT:      -7.2      3.132      5.383
REMARK  6 active torsions:
REMARK  status: ('A' for Active; 'I' for Inactive)
REMARK    1  A    between atoms: C_2  and  N_3 
REMARK    2  A    between atoms: C_2  and  C_20 
REMARK    3  A    between atoms: N_6  and  C_9 
REMARK    4  A    between atoms: C_13  and  C_16 
REMARK       I    between atoms: C_20  and  N_22 
REMARK    5  A    between atoms: C_23  and  N_22 
REMARK    6  A    between atoms: C_26  and  C_33 
REMARK       I    between atoms: C_33  and  N_35 
ROOT
HETATM    1  C   UNK N   1      30.900  27.616  -6.148  0.00  0.00     0.059 C 
HETATM    2  C   UNK N   1      30.032  27.472  -4.897  0.00  0.00     0.232 C 
HETATM    3  C   UNK N   1      29.995  28.877  -4.312  0.00  0.00     0.059 C 
ENDROOT
BRANCH   2   4
HETATM    4  N   UNK N   1      28.695  27.036  -5.352  0.00  0.00     0.110 N 
HETATM    5  C   UNK N   1      28.014  27.971  -6.258  0.00  0.00     0.294 C 
HETATM    6  C   UNK N   1      26.799  27.271  -6.892  0.00  0.00     0.154 C 
HETATM    7  N   UNK N   1      26.393  26.152  -6.060  0.00  0.00    -0.364 N 
HETATM    8  C   UNK N   1      26.398  26.339  -4.632  0.00  0.00     0.154 C 
HETATM    9  C   UNK N   1      27.817  26.711  -4.201  0.00  0.00     0.294 C 
BRANCH   7  10
HETATM   10  C   UNK N   1      26.263  24.843  -6.604  0.00  0.00     0.103 A 
HETATM   11  N   UNK N   1      25.579  23.880  -5.929  0.00  0.00    -0.352 N 
HETATM   12  C   UNK N   1      25.429  22.624  -6.433  0.00  0.00     0.106 A 
ATOM     13  HN  UNK N   1      25.168  24.105  -5.023  1.00  0.00     0.166 HD
HETATM   14  C   UNK N   1      25.987  22.290  -7.675  0.00  0.00     0.063 A 
HETATM   15  C   UNK N   1      26.685  23.265  -8.387  0.00  0.00     0.021 A 
HETATM   16  C   UNK N   1      26.823  24.545  -7.858  0.00  0.00     0.049 A 
BRANCH  14  17
HETATM   17  C   UNK N   1      25.865  20.905  -8.235  0.00  0.00     0.418 C 
HETATM   18  F   UNK N   1      24.941  20.196  -7.489  0.00  0.00    -0.166 F 
HETATM   19  F   UNK N   1      25.446  20.935  -9.554  0.00  0.00    -0.166 F 
HETATM   20  F   UNK N   1      27.090  20.264  -8.168  0.00  0.00    -0.166 F 
ENDBRANCH  14  17
ENDBRANCH   7  10
ENDBRANCH   2   4
BRANCH   2  21
HETATM   21  C   UNK N   1      30.665  26.432  -3.961  0.00  0.00     0.256 C 
HETATM   22  O   UNK N   1      31.003  26.789  -2.843  0.00  0.00    -0.271 OA
HETATM   23  N   UNK N   1      30.958  25.157  -4.323  0.00  0.00    -0.353 N 
HETATM   24  H   UNK N   1      31.612  24.696  -3.751  0.00  0.00     0.163 HD
BRANCH  23  25
HETATM   25  C   UNK N   1      30.443  24.377  -5.434  0.00  0.00     0.092 C 
HETATM   26  C   UNK N   1      31.665  23.691  -6.095  0.00  0.00     0.010 C 
HETATM   27  C   UNK N   1      31.234  22.666  -7.158  0.00  0.00     0.011 C 
HETATM   28  C   UNK N   1      32.466  22.952  -5.009  0.00  0.00     0.026 C 
HETATM   29  C   UNK N   1      30.373  21.571  -6.511  0.00  0.00    -0.013 C 
HETATM   30  C   UNK N   1      29.122  22.245  -5.933  0.00  0.00     0.011 C 
HETATM   31  C   UNK N   1      31.165  20.866  -5.381  0.00  0.00     0.024 C 
HETATM   32  C   UNK N   1      29.534  23.261  -4.855  0.00  0.00     0.010 C 
HETATM   33  C   UNK N   1      30.296  22.524  -3.747  0.00  0.00     0.026 C 
HETATM   34  C   UNK N   1      31.582  21.897  -4.313  0.00  0.00     0.042 C 
BRANCH  34  35
HETATM   35  C   UNK N   1      32.357  21.323  -3.154  0.00  0.00     0.224 C 
HETATM   36  O   UNK N   1      32.178  21.769  -2.029  0.00  0.00    -0.273 OA
HETATM   37  N   UNK N   1      33.239  20.321  -3.335  0.00  0.00    -0.369 N 
HETATM   38  H   UNK N   1      33.326  19.884  -4.213  0.00  0.00     0.159 HD
HETATM   39  H   UNK N   1      33.801  20.024  -2.584  0.00  0.00     0.159 HD
ENDBRANCH  34  35
ENDBRANCH  23  25
ENDBRANCH   2  21
TORSDOF 6
ENDMDL
MODEL 7
REMARK VINA RESULT:      -7.0      3.398      5.646
REMARK  6 active torsions:
REMARK  status: ('A' for Active; 'I' for Inactive)
REMARK    1  A    between atoms: C_2  and  N_3 
REMARK    2  A    between atoms: C_2  and  C_20 
REMARK    3  A    between atoms: N_6  and  C_9 
REMARK    4  A    between atoms: C_13  and  C_16 
REMARK       I    between atoms: C_20  and  N_22 
REMARK    5  A    between atoms: C_23  and  N_22 
REMARK    6  A    between atoms: C_26  and  C_33 
REMARK       I    between atoms: C_33  and  N_35 
ROOT
HETATM    1  C   UNK N   1      27.356  28.138  -6.207  0.00  0.00     0.059 C 
HETATM    2  C   UNK N   1      26.605  26.839  -5.918  0.00  0.00     0.232 C 
HETATM    3  C   UNK N   1      25.148  27.269  -5.822  0.00  0.00     0.059 C 
ENDROOT
BRANCH   2   4
HETATM    4  N   UNK N   1      26.834  25.946  -7.073  0.00  0.00     0.110 N 
HETATM    5  C   UNK N   1      27.497  26.577  -8.222  0.00  0.00     0.294 C 
HETATM    6  C   UNK N   1      27.950  25.488  -9.210  0.00  0.00     0.154 C 
HETATM    7  N   UNK N   1      27.168  24.283  -8.998  0.00  0.00    -0.364 N 
HETATM    8  C   UNK N   1      25.757  24.432  -8.754  0.00  0.00     0.154 C 
HETATM    9  C   UNK N   1      25.573  25.296  -7.507  0.00  0.00     0.294 C 
BRANCH   7  10
HETATM   10  C   UNK N   1      27.802  23.030  -8.762  0.00  0.00     0.103 A 
HETATM   11  N   UNK N   1      28.933  22.691  -9.440  0.00  0.00    -0.352 N 
HETATM   12  C   UNK N   1      29.566  21.505  -9.224  0.00  0.00     0.106 A 
ATOM     13  HN  UNK N   1      29.316  23.342 -10.125  1.00  0.00     0.166 HD
HETATM   14  C   UNK N   1      29.057  20.593  -8.288  0.00  0.00     0.063 A 
HETATM   15  C   UNK N   1      27.903  20.925  -7.578  0.00  0.00     0.021 A 
HETATM   16  C   UNK N   1      27.274  22.144  -7.808  0.00  0.00     0.049 A 
BRANCH  14  17
HETATM   17  C   UNK N   1      29.716  19.266  -8.058  0.00  0.00     0.418 C 
HETATM   18  F   UNK N   1      28.771  18.367  -7.595  0.00  0.00    -0.166 F 
HETATM   19  F   UNK N   1      30.265  18.772  -9.229  0.00  0.00    -0.166 F 
HETATM   20  F   UNK N   1      30.718  19.399  -7.114  0.00  0.00    -0.166 F 
ENDBRANCH  14  17
ENDBRANCH   7  10
ENDBRANCH   2   4
BRANCH   2  21
HETATM   21  C   UNK N   1      27.150  26.220  -4.623  0.00  0.00     0.256 C 
HETATM   22  O   UNK N   1      26.372  26.030  -3.699  0.00  0.00    -0.271 OA
HETATM   23  N   UNK N   1      28.460  25.948  -4.399  0.00  0.00    -0.353 N 
HETATM   24  H   UNK N   1      28.714  25.838  -3.454  0.00  0.00     0.163 HD
BRANCH  23  25
HETATM   25  C   UNK N   1      29.543  25.797  -5.354  0.00  0.00     0.092 C 
HETATM   26  C   UNK N   1      30.857  26.061  -4.578  0.00  0.00     0.010 C 
HETATM   27  C   UNK N   1      32.096  25.725  -5.427  0.00  0.00     0.011 C 
HETATM   28  C   UNK N   1      30.878  25.171  -3.322  0.00  0.00     0.026 C 
HETATM   29  C   UNK N   1      32.073  24.242  -5.824  0.00  0.00    -0.013 C 
HETATM   30  C   UNK N   1      30.812  24.005  -6.665  0.00  0.00     0.011 C 
HETATM   31  C   UNK N   1      32.038  23.350  -4.557  0.00  0.00     0.024 C 
HETATM   32  C   UNK N   1      29.564  24.318  -5.825  0.00  0.00     0.010 C 
HETATM   33  C   UNK N   1      29.555  23.405  -4.594  0.00  0.00     0.026 C 
HETATM   34  C   UNK N   1      30.789  23.682  -3.717  0.00  0.00     0.042 C 
BRANCH  34  35
HETATM   35  C   UNK N   1      30.644  22.869  -2.456  0.00  0.00     0.224 C 
HETATM   36  O   UNK N   1      31.568  22.157  -2.088  0.00  0.00    -0.273 OA
HETATM   37  N   UNK N   1      29.515  22.918  -1.722  0.00  0.00    -0.369 N 
HETATM   38  H   UNK N   1      28.800  23.556  -1.947  0.00  0.00     0.159 HD
HETATM   39  H   UNK N   1      29.404  22.311  -0.956  0.00  0.00     0.159 HD
ENDBRANCH  34  35
ENDBRANCH  23  25
ENDBRANCH   2  21
TORSDOF 6
ENDMDL
MODEL 8
REMARK VINA RESULT:      -7.0     17.803     21.482
REMARK  6 active torsions:
REMARK  status: ('A' for Active; 'I' for Inactive)
REMARK    1  A    between atoms: C_2  and  N_3 
REMARK    2  A    between atoms: C_2  and  C_20 
REMARK    3  A    between atoms: N_6  and  C_9 
REMARK    4  A    between atoms: C_13  and  C_16 
REMARK       I    between atoms: C_20  and  N_22 
REMARK    5  A    between atoms: C_23  and  N_22 
REMARK    6  A    between atoms: C_26  and  C_33 
REMARK       I    between atoms: C_33  and  N_35 
ROOT
HETATM    1  C   UNK N   1      37.872  14.477   9.766  0.00  0.00     0.059 C 
HETATM    2  C   UNK N   1      36.405  14.210   9.432  0.00  0.00     0.232 C 
HETATM    3  C   UNK N   1      36.398  14.033   7.920  0.00  0.00     0.059 C 
ENDROOT
BRANCH   2   4
HETATM    4  N   UNK N   1      36.027  12.961  10.128  0.00  0.00     0.110 N 
HETATM    5  C   UNK N   1      36.765  11.766   9.699  0.00  0.00     0.294 C 
HETATM    6  C   UNK N   1      36.508  10.624  10.697  0.00  0.00     0.154 C 
HETATM    7  N   UNK N   1      35.273  10.876  11.417  0.00  0.00    -0.364 N 
HETATM    8  C   UNK N   1      34.153  11.390  10.672  0.00  0.00     0.154 C 
HETATM    9  C   UNK N   1      34.566  12.718  10.037  0.00  0.00     0.294 C 
BRANCH   7  10
HETATM   10  C   UNK N   1      35.243  10.884  12.841  0.00  0.00     0.103 A 
HETATM   11  N   UNK N   1      36.342  11.258  13.551  0.00  0.00    -0.352 N 
HETATM   12  C   UNK N   1      36.336  11.287  14.913  0.00  0.00     0.106 A 
ATOM     13  HN  UNK N   1      37.190  11.524  13.052  1.00  0.00     0.166 HD
HETATM   14  C   UNK N   1      35.182  10.924  15.622  0.00  0.00     0.063 A 
HETATM   15  C   UNK N   1      34.043  10.545  14.912  0.00  0.00     0.021 A 
HETATM   16  C   UNK N   1      34.067  10.528  13.521  0.00  0.00     0.049 A 
BRANCH  14  17
HETATM   17  C   UNK N   1      35.162  10.914  17.121  0.00  0.00     0.418 C 
HETATM   18  F   UNK N   1      36.435  10.641  17.588  0.00  0.00    -0.166 F 
HETATM   19  F   UNK N   1      34.756  12.138  17.622  0.00  0.00    -0.166 F 
HETATM   20  F   UNK N   1      34.294   9.935  17.570  0.00  0.00    -0.166 F 
ENDBRANCH  14  17
ENDBRANCH   7  10
ENDBRANCH   2   4
BRANCH   2  21
HETATM   21  C   UNK N   1      35.554  15.392   9.916  0.00  0.00     0.256 C 
HETATM   22  O   UNK N   1      35.709  15.788  11.061  0.00  0.00    -0.271 OA
HETATM   23  N   UNK N   1      34.572  15.977   9.184  0.00  0.00    -0.353 N 
HETATM   24  H   UNK N   1      33.920  16.506   9.696  0.00  0.00     0.163 HD
BRANCH  23  25
HETATM   25  C   UNK N   1      34.345  15.931   7.750  0.00  0.00     0.092 C 
HETATM   26  C   UNK N   1      33.047  15.113   7.535  0.00  0.00     0.010 C 
HETATM   27  C   UNK N   1      32.578  15.167   6.070  0.00  0.00     0.011 C 
HETATM   28  C   UNK N   1      31.936  15.706   8.419  0.00  0.00     0.026 C 
HETATM   29  C   UNK N   1      32.292  16.620   5.665  0.00  0.00    -0.013 C 
HETATM   30  C   UNK N   1      33.602  17.407   5.799  0.00  0.00     0.011 C 
HETATM   31  C   UNK N   1      31.211  17.231   6.593  0.00  0.00     0.024 C 
HETATM   32  C   UNK N   1      34.075  17.379   7.261  0.00  0.00     0.010 C 
HETATM   33  C   UNK N   1      32.990  18.007   8.143  0.00  0.00     0.026 C 
HETATM   34  C   UNK N   1      31.692  17.185   8.058  0.00  0.00     0.042 C 
BRANCH  34  35
HETATM   35  C   UNK N   1      30.722  17.761   9.057  0.00  0.00     0.224 C 
HETATM   36  O   UNK N   1      30.516  18.967   9.073  0.00  0.00    -0.273 OA
HETATM   37  N   UNK N   1      30.069  16.968   9.929  0.00  0.00    -0.369 N 
HETATM   38  H   UNK N   1      30.146  15.988   9.868  0.00  0.00     0.159 HD
HETATM   39  H   UNK N   1      29.512  17.372  10.633  0.00  0.00     0.159 HD
ENDBRANCH  34  35
ENDBRANCH  23  25
ENDBRANCH   2  21
TORSDOF 6
ENDMDL
MODEL 9
REMARK VINA RESULT:      -6.8     12.373     13.779
REMARK  6 active torsions:
REMARK  status: ('A' for Active; 'I' for Inactive)
REMARK    1  A    between atoms: C_2  and  N_3 
REMARK    2  A    between atoms: C_2  and  C_20 
REMARK    3  A    between atoms: N_6  and  C_9 
REMARK    4  A    between atoms: C_13  and  C_16 
REMARK       I    between atoms: C_20  and  N_22 
REMARK    5  A    between atoms: C_23  and  N_22 
REMARK    6  A    between atoms: C_26  and  C_33 
REMARK       I    between atoms: C_33  and  N_35 
ROOT
HETATM    1  C   UNK N   1      28.276  11.304   2.904  0.00  0.00     0.059 C 
HETATM    2  C   UNK N   1      29.011  12.635   3.066  0.00  0.00     0.232 C 
HETATM    3  C   UNK N   1      29.758  12.805   1.750  0.00  0.00     0.059 C 
ENDROOT
BRANCH   2   4
HETATM    4  N   UNK N   1      27.978  13.676   3.245  0.00  0.00     0.110 N 
HETATM    5  C   UNK N   1      26.672  13.181   3.699  0.00  0.00     0.294 C 
HETATM    6  C   UNK N   1      25.801  14.371   4.139  0.00  0.00     0.154 C 
HETATM    7  N   UNK N   1      26.287  15.587   3.513  0.00  0.00    -0.364 N 
HETATM    8  C   UNK N   1      26.692  15.517   2.133  0.00  0.00     0.154 C 
HETATM    9  C   UNK N   1      27.814  14.486   2.012  0.00  0.00     0.294 C 
BRANCH   7  10
HETATM   10  C   UNK N   1      26.616  16.732   4.292  0.00  0.00     0.103 A 
HETATM   11  N   UNK N   1      26.893  16.607   5.619  0.00  0.00    -0.352 N 
HETATM   12  C   UNK N   1      27.223  17.683   6.385  0.00  0.00     0.106 A 
ATOM     13  HN  UNK N   1      26.854  15.683   6.050  1.00  0.00     0.166 HD
HETATM   14  C   UNK N   1      27.283  18.963   5.815  0.00  0.00     0.063 A 
HETATM   15  C   UNK N   1      27.010  19.112   4.455  0.00  0.00     0.021 A 
HETATM   16  C   UNK N   1      26.681  17.999   3.689  0.00  0.00     0.049 A 
BRANCH  14  17
HETATM   17  C   UNK N   1      27.609  20.169   6.644  0.00  0.00     0.418 C 
HETATM   18  F   UNK N   1      28.084  21.170   5.817  0.00  0.00    -0.166 F 
HETATM   19  F   UNK N   1      26.489  20.634   7.310  0.00  0.00    -0.166 F 
HETATM   20  F   UNK N   1      28.582  19.848   7.573  0.00  0.00    -0.166 F 
ENDBRANCH  14  17
ENDBRANCH   7  10
ENDBRANCH   2   4
BRANCH   2  21
HETATM   21  C   UNK N   1      29.934  12.554   4.290  0.00  0.00     0.256 C 
HETATM   22  O   UNK N   1      29.966  11.510   4.925  0.00  0.00    -0.271 OA
HETATM   23  N   UNK N   1      30.655  13.598   4.773  0.00  0.00    -0.353 N 
HETATM   24  H   UNK N   1      30.961  13.507   5.703  0.00  0.00     0.163 HD
BRANCH  23  25
HETATM   25  C   UNK N   1      31.039  14.832   4.111  0.00  0.00     0.092 C 
HETATM   26  C   UNK N   1      30.282  15.975   4.833  0.00  0.00     0.010 C 
HETATM   27  C   UNK N   1      30.763  17.359   4.365  0.00  0.00     0.011 C 
HETATM   28  C   UNK N   1      30.541  15.861   6.346  0.00  0.00     0.026 C 
HETATM   29  C   UNK N   1      32.260  17.522   4.664  0.00  0.00    -0.013 C 
HETATM   30  C   UNK N   1      33.013  16.441   3.878  0.00  0.00     0.011 C 
HETATM   31  C   UNK N   1      32.524  17.353   6.182  0.00  0.00     0.024 C 
HETATM   32  C   UNK N   1      32.557  15.050   4.348  0.00  0.00     0.010 C 
HETATM   33  C   UNK N   1      32.851  14.913   5.846  0.00  0.00     0.026 C 
HETATM   34  C   UNK N   1      32.051  15.959   6.643  0.00  0.00     0.042 C 
BRANCH  34  35
HETATM   35  C   UNK N   1      32.263  15.675   8.108  0.00  0.00     0.224 C 
HETATM   36  O   UNK N   1      32.938  14.711   8.444  0.00  0.00    -0.273 OA
HETATM   37  N   UNK N   1      31.729  16.470   9.055  0.00  0.00    -0.369 N 
HETATM   38  H   UNK N   1      31.267  17.303   8.806  0.00  0.00     0.159 HD
HETATM   39  H   UNK N   1      31.801  16.216  10.003  0.00  0.00     0.159 HD
ENDBRANCH  34  35
ENDBRANCH  23  25
ENDBRANCH   2  21
TORSDOF 6
ENDMDL
