MODEL 1
REMARK VINA RESULT:      -8.2      0.000      0.000
REMARK  4 active torsions:
REMARK  status: ('A' for Active; 'I' for Inactive)
REMARK    1  A    between atoms: N_2  and  C_4 
REMARK    2  A    between atoms: C_4  and  C_5 
REMARK    3  A    between atoms: C_5  and  N_6 
REMARK    4  A    between atoms: C_8  and  C_16 
REMARK       I    between atoms: C_16  and  N_18 
ROOT
HETATM    1  C   UNK N   1      34.534  17.086   8.913  0.00  0.00     0.256 C 
HETATM    2  O   UNK N   1      35.075  18.158   9.137  0.00  0.00    -0.267 OA
HETATM    3  N   UNK N   1      34.817  16.006   9.702  0.00  0.00    -0.348 N 
HETATM    4  C   UNK N   1      35.933  16.084  10.624  0.00  0.00     0.129 C 
HETATM    5  C   UNK N   1      36.740  14.806  10.414  0.00  0.00     0.063 C 
HETATM    6  C   UNK N   1      35.921  13.631  10.974  0.00  0.00     0.092 A 
HETATM    7  C   UNK N   1      34.400  13.819  10.782  0.00  0.00     0.063 C 
HETATM    8  C   UNK N   1      34.072  14.753   9.605  0.00  0.00     0.129 C 
HETATM    9  C   UNK N   1      36.262  13.518  12.400  0.00  0.00    -0.015 A 
HETATM   10  C   UNK N   1      36.120  14.479  13.407  0.00  0.00     0.011 A 
HETATM   11  C   UNK N   1      36.592  14.173  14.691  0.00  0.00     0.001 A 
HETATM   12  C   UNK N   1      37.189  12.922  14.938  0.00  0.00     0.001 A 
HETATM   13  C   UNK N   1      37.308  11.983  13.899  0.00  0.00     0.010 A 
HETATM   14  C   UNK N   1      36.827  12.329  12.635  0.00  0.00    -0.025 A 
HETATM   15  C   UNK N   1      36.871  11.547  11.396  0.00  0.00     0.208 A 
HETATM   16  O   UNK N   1      36.332  12.397  10.376  0.00  0.00    -0.371 OA
ENDROOT
BRANCH   1  17
HETATM   17  C   UNK N   1      33.645  16.981   7.729  0.00  0.00     0.060 A 
HETATM   18  C   UNK N   1      34.060  16.866   6.403  0.00  0.00     0.109 A 
HETATM   19  N   UNK N   1      32.983  16.969   5.596  0.00  0.00    -0.353 N 
HETATM   20  C   UNK N   1      31.905  17.141   6.378  0.00  0.00     0.047 A 
HETATM   21  C   UNK N   1      32.273  17.156   7.696  0.00  0.00     0.008 A 
HETATM   22  C   UNK N   1      30.585  17.327   5.978  0.00  0.00     0.054 A 
HETATM   23  C   UNK N   1      31.342  17.355   8.713  0.00  0.00     0.016 A 
HETATM   24  C   UNK N   1      29.995  17.531   8.343  0.00  0.00     0.025 A 
HETATM   25  C   UNK N   1      29.618  17.518   6.980  0.00  0.00     0.036 A 
HETATM   26 Cl   UNK N   1      27.944  17.752   6.533  0.00  0.00    -0.084 Cl
BRANCH  19  27
HETATM   27  C   UNK N   1      33.027  17.041   4.145  0.00  0.00     0.158 C 
BRANCH  27  28
HETATM   28  C   UNK N   1      33.417  15.713   3.539  0.00  0.00     0.291 C 
BRANCH  28  29
HETATM   29  N   UNK N   1      32.470  14.709   3.987  0.00  0.00     0.081 N 
HETATM   30  C   UNK N   1      33.091  13.408   3.818  0.00  0.00     0.309 C 
HETATM   31  C   UNK N   1      31.335  14.767   3.083  0.00  0.00     0.309 C 
ENDBRANCH  28  29
ENDBRANCH  27  28
ENDBRANCH  19  27
ENDBRANCH   1  17
TORSDOF 4
ENDMDL
MODEL 2
REMARK VINA RESULT:      -8.1      1.813      3.455
REMARK  4 active torsions:
REMARK  status: ('A' for Active; 'I' for Inactive)
REMARK    1  A    between atoms: N_2  and  C_4 
REMARK    2  A    between atoms: C_4  and  C_5 
REMARK    3  A    between atoms: C_5  and  N_6 
REMARK    4  A    between atoms: C_8  and  C_16 
REMARK       I    between atoms: C_16  and  N_18 
ROOT
HETATM    1  C   UNK N   1      34.580  17.239   9.167  0.00  0.00     0.256 C 
HETATM    2  O   UNK N   1      35.239  18.251   9.347  0.00  0.00    -0.267 OA
HETATM    3  N   UNK N   1      34.807  16.137   9.944  0.00  0.00    -0.348 N 
HETATM    4  C   UNK N   1      35.985  16.103  10.787  0.00  0.00     0.129 C 
HETATM    5  C   UNK N   1      36.645  14.751  10.532  0.00  0.00     0.063 C 
HETATM    6  C   UNK N   1      35.753  13.664  11.154  0.00  0.00     0.092 A 
HETATM    7  C   UNK N   1      34.249  14.002  11.065  0.00  0.00     0.063 C 
HETATM    8  C   UNK N   1      33.936  14.964   9.905  0.00  0.00     0.129 C 
HETATM    9  C   UNK N   1      36.177  13.517  12.555  0.00  0.00    -0.015 A 
HETATM   10  C   UNK N   1      36.201  14.487  13.563  0.00  0.00     0.011 A 
HETATM   11  C   UNK N   1      36.726  14.136  14.814  0.00  0.00     0.001 A 
HETATM   12  C   UNK N   1      37.211  12.832  15.028  0.00  0.00     0.001 A 
HETATM   13  C   UNK N   1      37.164  11.885  13.990  0.00  0.00     0.010 A 
HETATM   14  C   UNK N   1      36.636  12.278  12.759  0.00  0.00    -0.025 A 
HETATM   15  C   UNK N   1      36.516  11.495  11.526  0.00  0.00     0.208 A 
HETATM   16  O   UNK N   1      35.998  12.395  10.539  0.00  0.00    -0.371 OA
ENDROOT
BRANCH   1  17
HETATM   17  C   UNK N   1      33.607  17.223   8.047  0.00  0.00     0.060 A 
HETATM   18  C   UNK N   1      32.309  17.728   8.085  0.00  0.00     0.109 A 
HETATM   19  N   UNK N   1      31.669  17.382   6.947  0.00  0.00    -0.353 N 
HETATM   20  C   UNK N   1      32.531  16.680   6.196  0.00  0.00     0.047 A 
HETATM   21  C   UNK N   1      33.733  16.558   6.840  0.00  0.00     0.008 A 
HETATM   22  C   UNK N   1      32.296  16.093   4.955  0.00  0.00     0.054 A 
HETATM   23  C   UNK N   1      34.790  15.842   6.285  0.00  0.00     0.016 A 
HETATM   24  C   UNK N   1      34.591  15.248   5.024  0.00  0.00     0.025 A 
HETATM   25  C   UNK N   1      33.347  15.372   4.363  0.00  0.00     0.036 A 
HETATM   26 Cl   UNK N   1      33.107  14.619   2.803  0.00  0.00    -0.084 Cl
BRANCH  19  27
HETATM   27  C   UNK N   1      30.258  17.602   6.679  0.00  0.00     0.158 C 
BRANCH  27  28
HETATM   28  C   UNK N   1      29.387  16.878   7.680  0.00  0.00     0.291 C 
BRANCH  28  29
HETATM   29  N   UNK N   1      28.372  17.799   8.156  0.00  0.00     0.081 N 
HETATM   30  C   UNK N   1      28.217  18.841   7.159  0.00  0.00     0.309 C 
HETATM   31  C   UNK N   1      28.899  18.423   9.356  0.00  0.00     0.309 C 
ENDBRANCH  28  29
ENDBRANCH  27  28
ENDBRANCH  19  27
ENDBRANCH   1  17
TORSDOF 4
ENDMDL
MODEL 3
REMARK VINA RESULT:      -7.8      3.555      9.340
REMARK  4 active torsions:
REMARK  status: ('A' for Active; 'I' for Inactive)
REMARK    1  A    between atoms: N_2  and  C_4 
REMARK    2  A    between atoms: C_4  and  C_5 
REMARK    3  A    between atoms: C_5  and  N_6 
REMARK    4  A    between atoms: C_8  and  C_16 
REMARK       I    between atoms: C_16  and  N_18 
ROOT
HETATM    1  C   UNK N   1      36.092  15.324  10.614  0.00  0.00     0.256 C 
HETATM    2  O   UNK N   1      37.029  16.105  10.550  0.00  0.00    -0.267 OA
HETATM    3  N   UNK N   1      35.049  15.446   9.738  0.00  0.00    -0.348 N 
HETATM    4  C   UNK N   1      34.952  16.640   8.925  0.00  0.00     0.129 C 
HETATM    5  C   UNK N   1      33.511  17.125   9.061  0.00  0.00     0.063 C 
HETATM    6  C   UNK N   1      32.605  16.133   8.313  0.00  0.00     0.092 A 
HETATM    7  C   UNK N   1      33.114  14.678   8.400  0.00  0.00     0.063 C 
HETATM    8  C   UNK N   1      33.993  14.441   9.640  0.00  0.00     0.129 C 
HETATM    9  C   UNK N   1      32.541  16.586   6.915  0.00  0.00    -0.015 A 
HETATM   10  C   UNK N   1      33.593  16.760   6.009  0.00  0.00     0.011 A 
HETATM   11  C   UNK N   1      33.301  17.284   4.742  0.00  0.00     0.001 A 
HETATM   12  C   UNK N   1      31.974  17.618   4.412  0.00  0.00     0.001 A 
HETATM   13  C   UNK N   1      30.945  17.422   5.350  0.00  0.00     0.010 A 
HETATM   14  C   UNK N   1      31.280  16.901   6.600  0.00  0.00    -0.025 A 
HETATM   15  C   UNK N   1      30.405  16.645   7.748  0.00  0.00     0.208 A 
HETATM   16  O   UNK N   1      31.263  16.203   8.806  0.00  0.00    -0.371 OA
ENDROOT
BRANCH   1  17
HETATM   17  C   UNK N   1      36.088  14.317  11.704  0.00  0.00     0.060 A 
HETATM   18  C   UNK N   1      35.690  14.539  13.021  0.00  0.00     0.109 A 
HETATM   19  N   UNK N   1      35.987  13.448  13.759  0.00  0.00    -0.353 N 
HETATM   20  C   UNK N   1      36.554  12.547  12.941  0.00  0.00     0.047 A 
HETATM   21  C   UNK N   1      36.636  13.046  11.670  0.00  0.00     0.008 A 
HETATM   22  C   UNK N   1      37.050  11.289  13.274  0.00  0.00     0.054 A 
HETATM   23  C   UNK N   1      37.219  12.319  10.635  0.00  0.00     0.016 A 
HETATM   24  C   UNK N   1      37.717  11.037  10.934  0.00  0.00     0.025 A 
HETATM   25  C   UNK N   1      37.634  10.525  12.249  0.00  0.00     0.036 A 
HETATM   26 Cl   UNK N   1      38.269   8.937  12.612  0.00  0.00    -0.084 Cl
BRANCH  19  27
HETATM   27  C   UNK N   1      35.855  13.352  15.203  0.00  0.00     0.158 C 
BRANCH  27  28
HETATM   28  C   UNK N   1      34.616  12.578  15.593  0.00  0.00     0.291 C 
BRANCH  28  29
HETATM   29  N   UNK N   1      34.805  12.054  16.933  0.00  0.00     0.081 N 
HETATM   30  C   UNK N   1      35.172  13.164  17.794  0.00  0.00     0.309 C 
HETATM   31  C   UNK N   1      35.943  11.155  16.878  0.00  0.00     0.309 C 
ENDBRANCH  28  29
ENDBRANCH  27  28
ENDBRANCH  19  27
ENDBRANCH   1  17
TORSDOF 4
ENDMDL
MODEL 4
REMARK VINA RESULT:      -7.8      3.211      4.795
REMARK  4 active torsions:
REMARK  status: ('A' for Active; 'I' for Inactive)
REMARK    1  A    between atoms: N_2  and  C_4 
REMARK    2  A    between atoms: C_4  and  C_5 
REMARK    3  A    between atoms: C_5  and  N_6 
REMARK    4  A    between atoms: C_8  and  C_16 
REMARK       I    between atoms: C_16  and  N_18 
ROOT
HETATM    1  C   UNK N   1      35.807  14.411  11.880  0.00  0.00     0.256 C 
HETATM    2  O   UNK N   1      36.317  15.514  12.000  0.00  0.00    -0.267 OA
HETATM    3  N   UNK N   1      35.629  13.624  12.984  0.00  0.00    -0.348 N 
HETATM    4  C   UNK N   1      36.274  14.001  14.225  0.00  0.00     0.129 C 
HETATM    5  C   UNK N   1      36.959  12.740  14.743  0.00  0.00     0.063 C 
HETATM    6  C   UNK N   1      35.866  11.766  15.213  0.00  0.00     0.092 A 
HETATM    7  C   UNK N   1      34.584  11.849  14.356  0.00  0.00     0.063 C 
HETATM    8  C   UNK N   1      34.864  12.380  12.940  0.00  0.00     0.129 C 
HETATM    9  C   UNK N   1      35.582  12.092  16.618  0.00  0.00    -0.015 A 
HETATM   10  C   UNK N   1      35.143  13.306  17.158  0.00  0.00     0.011 A 
HETATM   11  C   UNK N   1      35.016  13.410  18.550  0.00  0.00     0.001 A 
HETATM   12  C   UNK N   1      35.327  12.305  19.365  0.00  0.00     0.001 A 
HETATM   13  C   UNK N   1      35.761  11.101  18.782  0.00  0.00     0.010 A 
HETATM   14  C   UNK N   1      35.876  11.042  17.393  0.00  0.00    -0.025 A 
HETATM   15  C   UNK N   1      36.339   9.927  16.562  0.00  0.00     0.208 A 
HETATM   16  O   UNK N   1      36.355  10.420  15.217  0.00  0.00    -0.371 OA
ENDROOT
BRANCH   1  17
HETATM   17  C   UNK N   1      35.472  13.935  10.515  0.00  0.00     0.060 A 
HETATM   18  C   UNK N   1      36.311  13.205   9.675  0.00  0.00     0.109 A 
HETATM   19  N   UNK N   1      35.735  13.103   8.458  0.00  0.00    -0.353 N 
HETATM   20  C   UNK N   1      34.556  13.743   8.514  0.00  0.00     0.047 A 
HETATM   21  C   UNK N   1      34.360  14.270   9.762  0.00  0.00     0.008 A 
HETATM   22  C   UNK N   1      33.637  13.924   7.484  0.00  0.00     0.054 A 
HETATM   23  C   UNK N   1      33.225  15.015  10.071  0.00  0.00     0.016 A 
HETATM   24  C   UNK N   1      32.267  15.203   9.057  0.00  0.00     0.025 A 
HETATM   25  C   UNK N   1      32.474  14.660   7.767  0.00  0.00     0.036 A 
HETATM   26 Cl   UNK N   1      31.284  14.913   6.511  0.00  0.00    -0.084 Cl
BRANCH  19  27
HETATM   27  C   UNK N   1      36.365  12.539   7.277  0.00  0.00     0.158 C 
BRANCH  27  28
HETATM   28  C   UNK N   1      37.656  13.252   6.948  0.00  0.00     0.291 C 
BRANCH  28  29
HETATM   29  N   UNK N   1      37.386  14.239   5.919  0.00  0.00     0.081 N 
HETATM   30  C   UNK N   1      36.537  13.616   4.921  0.00  0.00     0.309 C 
HETATM   31  C   UNK N   1      38.654  14.541   5.281  0.00  0.00     0.309 C 
ENDBRANCH  28  29
ENDBRANCH  27  28
ENDBRANCH  19  27
ENDBRANCH   1  17
TORSDOF 4
ENDMDL
MODEL 5
REMARK VINA RESULT:      -7.7      6.583     10.013
REMARK  4 active torsions:
REMARK  status: ('A' for Active; 'I' for Inactive)
REMARK    1  A    between atoms: N_2  and  C_4 
REMARK    2  A    between atoms: C_4  and  C_5 
REMARK    3  A    between atoms: C_5  and  N_6 
REMARK    4  A    between atoms: C_8  and  C_16 
REMARK       I    between atoms: C_16  and  N_18 
ROOT
HETATM    1  C   UNK N   1      25.969  16.185   3.866  0.00  0.00     0.256 C 
HETATM    2  O   UNK N   1      26.097  15.384   2.954  0.00  0.00    -0.267 OA
HETATM    3  N   UNK N   1      27.073  16.619   4.546  0.00  0.00    -0.348 N 
HETATM    4  C   UNK N   1      28.335  15.935   4.344  0.00  0.00     0.129 C 
HETATM    5  C   UNK N   1      28.891  15.660   5.738  0.00  0.00     0.063 C 
HETATM    6  C   UNK N   1      29.328  17.002   6.347  0.00  0.00     0.092 A 
HETATM    7  C   UNK N   1      28.422  18.176   5.918  0.00  0.00     0.063 C 
HETATM    8  C   UNK N   1      27.012  17.708   5.518  0.00  0.00     0.129 C 
HETATM    9  C   UNK N   1      30.719  17.228   5.924  0.00  0.00    -0.015 A 
HETATM   10  C   UNK N   1      31.229  17.317   4.624  0.00  0.00     0.011 A 
HETATM   11  C   UNK N   1      32.613  17.456   4.460  0.00  0.00     0.001 A 
HETATM   12  C   UNK N   1      33.451  17.503   5.590  0.00  0.00     0.001 A 
HETATM   13  C   UNK N   1      32.898  17.415   6.880  0.00  0.00     0.010 A 
HETATM   14  C   UNK N   1      31.515  17.274   6.998  0.00  0.00    -0.025 A 
HETATM   15  C   UNK N   1      30.713  17.123   8.216  0.00  0.00     0.208 A 
HETATM   16  O   UNK N   1      29.365  16.921   7.776  0.00  0.00    -0.371 OA
ENDROOT
BRANCH   1  17
HETATM   17  C   UNK N   1      24.597  16.597   4.255  0.00  0.00     0.060 A 
HETATM   18  C   UNK N   1      23.900  17.693   3.752  0.00  0.00     0.109 A 
HETATM   19  N   UNK N   1      22.761  17.851   4.460  0.00  0.00    -0.353 N 
HETATM   20  C   UNK N   1      22.723  16.882   5.388  0.00  0.00     0.047 A 
HETATM   21  C   UNK N   1      23.836  16.092   5.295  0.00  0.00     0.008 A 
HETATM   22  C   UNK N   1      21.750  16.675   6.363  0.00  0.00     0.054 A 
HETATM   23  C   UNK N   1      24.056  15.032   6.171  0.00  0.00     0.016 A 
HETATM   24  C   UNK N   1      23.084  14.786   7.159  0.00  0.00     0.025 A 
HETATM   25  C   UNK N   1      21.936  15.606   7.255  0.00  0.00     0.036 A 
HETATM   26 Cl   UNK N   1      20.743  15.298   8.496  0.00  0.00    -0.084 Cl
BRANCH  19  27
HETATM   27  C   UNK N   1      21.841  18.969   4.329  0.00  0.00     0.158 C 
BRANCH  27  28
HETATM   28  C   UNK N   1      22.160  19.805   3.111  0.00  0.00     0.291 C 
BRANCH  28  29
HETATM   29  N   UNK N   1      20.933  20.427   2.647  0.00  0.00     0.081 N 
HETATM   30  C   UNK N   1      19.827  19.582   3.056  0.00  0.00     0.309 C 
HETATM   31  C   UNK N   1      20.976  20.411   1.196  0.00  0.00     0.309 C 
ENDBRANCH  28  29
ENDBRANCH  27  28
ENDBRANCH  19  27
ENDBRANCH   1  17
TORSDOF 4
ENDMDL
MODEL 6
REMARK VINA RESULT:      -7.6      3.573      5.903
REMARK  4 active torsions:
REMARK  status: ('A' for Active; 'I' for Inactive)
REMARK    1  A    between atoms: N_2  and  C_4 
REMARK    2  A    between atoms: C_4  and  C_5 
REMARK    3  A    between atoms: C_5  and  N_6 
REMARK    4  A    between atoms: C_8  and  C_16 
REMARK       I    between atoms: C_16  and  N_18 
ROOT
HETATM    1  C   UNK N   1      35.660  14.497  12.589  0.00  0.00     0.256 C 
HETATM    2  O   UNK N   1      36.264  15.539  12.789  0.00  0.00    -0.267 OA
HETATM    3  N   UNK N   1      35.492  13.604  13.610  0.00  0.00    -0.348 N 
HETATM    4  C   UNK N   1      36.245  13.788  14.834  0.00  0.00     0.129 C 
HETATM    5  C   UNK N   1      36.859  12.430  15.159  0.00  0.00     0.063 C 
HETATM    6  C   UNK N   1      35.724  11.491  15.600  0.00  0.00     0.092 A 
HETATM    7  C   UNK N   1      34.399  11.765  14.855  0.00  0.00     0.063 C 
HETATM    8  C   UNK N   1      34.627  12.433  13.487  0.00  0.00     0.129 C 
HETATM    9  C   UNK N   1      35.560  11.674  17.049  0.00  0.00    -0.015 A 
HETATM   10  C   UNK N   1      35.256  12.847  17.749  0.00  0.00     0.011 A 
HETATM   11  C   UNK N   1      35.230  12.800  19.150  0.00  0.00     0.001 A 
HETATM   12  C   UNK N   1      35.504  11.589  19.814  0.00  0.00     0.001 A 
HETATM   13  C   UNK N   1      35.799  10.432  19.073  0.00  0.00     0.010 A 
HETATM   14  C   UNK N   1      35.818  10.524  17.681  0.00  0.00    -0.025 A 
HETATM   15  C   UNK N   1      36.134   9.481  16.701  0.00  0.00     0.208 A 
HETATM   16  O   UNK N   1      36.101  10.122  15.420  0.00  0.00    -0.371 OA
ENDROOT
BRANCH   1  17
HETATM   17  C   UNK N   1      35.199  14.206  11.208  0.00  0.00     0.060 A 
HETATM   18  C   UNK N   1      34.025  14.675  10.622  0.00  0.00     0.109 A 
HETATM   19  N   UNK N   1      33.856  14.067   9.429  0.00  0.00    -0.353 N 
HETATM   20  C   UNK N   1      34.893  13.234   9.249  0.00  0.00     0.047 A 
HETATM   21  C   UNK N   1      35.739  13.289  10.323  0.00  0.00     0.008 A 
HETATM   22  C   UNK N   1      35.118  12.376   8.175  0.00  0.00     0.054 A 
HETATM   23  C   UNK N   1      36.878  12.491  10.399  0.00  0.00     0.016 A 
HETATM   24  C   UNK N   1      37.144  11.624   9.321  0.00  0.00     0.025 A 
HETATM   25  C   UNK N   1      36.266  11.566   8.214  0.00  0.00     0.036 A 
HETATM   26 Cl   UNK N   1      36.600  10.475   6.890  0.00  0.00    -0.084 Cl
BRANCH  19  27
HETATM   27  C   UNK N   1      32.678  14.187   8.586  0.00  0.00     0.158 C 
BRANCH  27  28
HETATM   28  C   UNK N   1      32.772  15.390   7.676  0.00  0.00     0.291 C 
BRANCH  28  29
HETATM   29  N   UNK N   1      32.078  16.498   8.307  0.00  0.00     0.081 N 
HETATM   30  C   UNK N   1      30.848  16.724   7.572  0.00  0.00     0.309 C 
HETATM   31  C   UNK N   1      32.911  17.674   8.128  0.00  0.00     0.309 C 
ENDBRANCH  28  29
ENDBRANCH  27  28
ENDBRANCH  19  27
ENDBRANCH   1  17
TORSDOF 4
ENDMDL
MODEL 7
REMARK VINA RESULT:      -7.5      3.928      6.988
REMARK  4 active torsions:
REMARK  status: ('A' for Active; 'I' for Inactive)
REMARK    1  A    between atoms: N_2  and  C_4 
REMARK    2  A    between atoms: C_4  and  C_5 
REMARK    3  A    between atoms: C_5  and  N_6 
REMARK    4  A    between atoms: C_8  and  C_16 
REMARK       I    between atoms: C_16  and  N_18 
ROOT
HETATM    1  C   UNK N   1      35.286  11.655  12.098  0.00  0.00     0.256 C 
HETATM    2  O   UNK N   1      34.644  10.694  11.705  0.00  0.00    -0.267 OA
HETATM    3  N   UNK N   1      35.508  11.821  13.437  0.00  0.00    -0.348 N 
HETATM    4  C   UNK N   1      34.769  11.002  14.376  0.00  0.00     0.129 C 
HETATM    5  C   UNK N   1      34.216  11.962  15.426  0.00  0.00     0.063 C 
HETATM    6  C   UNK N   1      35.396  12.467  16.273  0.00  0.00     0.092 A 
HETATM    7  C   UNK N   1      36.695  12.624  15.454  0.00  0.00     0.063 C 
HETATM    8  C   UNK N   1      36.417  12.839  13.956  0.00  0.00     0.129 C 
HETATM    9  C   UNK N   1      35.577  11.502  17.367  0.00  0.00    -0.015 A 
HETATM   10  C   UNK N   1      35.844  10.131  17.282  0.00  0.00     0.011 A 
HETATM   11  C   UNK N   1      35.897   9.387  18.469  0.00  0.00     0.001 A 
HETATM   12  C   UNK N   1      35.683  10.026  19.705  0.00  0.00     0.001 A 
HETATM   13  C   UNK N   1      35.422  11.407  19.747  0.00  0.00     0.010 A 
HETATM   14  C   UNK N   1      35.376  12.109  18.542  0.00  0.00    -0.025 A 
HETATM   15  C   UNK N   1      35.086  13.528  18.323  0.00  0.00     0.208 A 
HETATM   16  O   UNK N   1      35.071  13.712  16.902  0.00  0.00    -0.371 OA
ENDROOT
BRANCH   1  17
HETATM   17  C   UNK N   1      35.735  12.657  11.098  0.00  0.00     0.060 A 
HETATM   18  C   UNK N   1      34.981  13.725  10.617  0.00  0.00     0.109 A 
HETATM   19  N   UNK N   1      35.650  14.312   9.601  0.00  0.00    -0.353 N 
HETATM   20  C   UNK N   1      36.803  13.645   9.437  0.00  0.00     0.047 A 
HETATM   21  C   UNK N   1      36.890  12.618  10.337  0.00  0.00     0.008 A 
HETATM   22  C   UNK N   1      37.791  13.877   8.483  0.00  0.00     0.054 A 
HETATM   23  C   UNK N   1      37.978  11.749  10.352  0.00  0.00     0.016 A 
HETATM   24  C   UNK N   1      39.003  11.965   9.412  0.00  0.00     0.025 A 
HETATM   25  C   UNK N   1      38.909  13.025   8.480  0.00  0.00     0.036 A 
HETATM   26 Cl   UNK N   1      40.182  13.274   7.307  0.00  0.00    -0.084 Cl
BRANCH  19  27
HETATM   27  C   UNK N   1      35.125  15.368   8.752  0.00  0.00     0.158 C 
BRANCH  27  28
HETATM   28  C   UNK N   1      34.886  16.638   9.536  0.00  0.00     0.291 C 
BRANCH  28  29
HETATM   29  N   UNK N   1      33.737  17.318   8.968  0.00  0.00     0.081 N 
HETATM   30  C   UNK N   1      32.915  16.321   8.307  0.00  0.00     0.309 C 
HETATM   31  C   UNK N   1      34.241  18.212   7.942  0.00  0.00     0.309 C 
ENDBRANCH  28  29
ENDBRANCH  27  28
ENDBRANCH  19  27
ENDBRANCH   1  17
TORSDOF 4
ENDMDL
MODEL 8
REMARK VINA RESULT:      -7.1     14.053     16.469
REMARK  4 active torsions:
REMARK  status: ('A' for Active; 'I' for Inactive)
REMARK    1  A    between atoms: N_2  and  C_4 
REMARK    2  A    between atoms: C_4  and  C_5 
REMARK    3  A    between atoms: C_5  and  N_6 
REMARK    4  A    between atoms: C_8  and  C_16 
REMARK       I    between atoms: C_16  and  N_18 
ROOT
HETATM    1  C   UNK N   1      30.485  22.991  -2.685  0.00  0.00     0.256 C 
HETATM    2  O   UNK N   1      30.697  22.957  -1.483  0.00  0.00    -0.267 OA
HETATM    3  N   UNK N   1      31.235  22.217  -3.526  0.00  0.00    -0.348 N 
HETATM    4  C   UNK N   1      32.424  21.569  -3.011  0.00  0.00     0.129 C 
HETATM    5  C   UNK N   1      33.534  21.871  -4.013  0.00  0.00     0.063 C 
HETATM    6  C   UNK N   1      33.245  21.073  -5.295  0.00  0.00     0.092 A 
HETATM    7  C   UNK N   1      31.734  20.938  -5.586  0.00  0.00     0.063 C 
HETATM    8  C   UNK N   1      30.914  22.071  -4.944  0.00  0.00     0.129 C 
HETATM    9  C   UNK N   1      33.868  19.752  -5.124  0.00  0.00    -0.015 A 
HETATM   10  C   UNK N   1      33.628  18.800  -4.127  0.00  0.00     0.011 A 
HETATM   11  C   UNK N   1      34.406  17.635  -4.117  0.00  0.00     0.001 A 
HETATM   12  C   UNK N   1      35.399  17.448  -5.098  0.00  0.00     0.001 A 
HETATM   13  C   UNK N   1      35.604  18.427  -6.085  0.00  0.00     0.010 A 
HETATM   14  C   UNK N   1      34.809  19.573  -6.056  0.00  0.00    -0.025 A 
HETATM   15  C   UNK N   1      34.858  20.741  -6.941  0.00  0.00     0.208 A 
HETATM   16  O   UNK N   1      33.898  21.669  -6.421  0.00  0.00    -0.371 OA
ENDROOT
BRANCH   1  17
HETATM   17  C   UNK N   1      29.466  23.942  -3.193  0.00  0.00     0.060 A 
HETATM   18  C   UNK N   1      28.116  23.662  -3.396  0.00  0.00     0.109 A 
HETATM   19  N   UNK N   1      27.540  24.708  -4.026  0.00  0.00    -0.353 N 
HETATM   20  C   UNK N   1      28.489  25.637  -4.218  0.00  0.00     0.047 A 
HETATM   21  C   UNK N   1      29.688  25.201  -3.723  0.00  0.00     0.008 A 
HETATM   22  C   UNK N   1      28.359  26.867  -4.860  0.00  0.00     0.054 A 
HETATM   23  C   UNK N   1      30.846  25.968  -3.828  0.00  0.00     0.016 A 
HETATM   24  C   UNK N   1      30.745  27.224  -4.457  0.00  0.00     0.025 A 
HETATM   25  C   UNK N   1      29.506  27.671  -4.972  0.00  0.00     0.036 A 
HETATM   26 Cl   UNK N   1      29.397  29.225  -5.764  0.00  0.00    -0.084 Cl
BRANCH  19  27
HETATM   27  C   UNK N   1      26.179  24.734  -4.536  0.00  0.00     0.158 C 
BRANCH  27  28
HETATM   28  C   UNK N   1      25.961  23.662  -5.579  0.00  0.00     0.291 C 
BRANCH  28  29
HETATM   29  N   UNK N   1      26.709  24.021  -6.769  0.00  0.00     0.081 N 
HETATM   30  C   UNK N   1      25.755  24.246  -7.839  0.00  0.00     0.309 C 
HETATM   31  C   UNK N   1      27.503  22.863  -7.135  0.00  0.00     0.309 C 
ENDBRANCH  28  29
ENDBRANCH  27  28
ENDBRANCH  19  27
ENDBRANCH   1  17
TORSDOF 4
ENDMDL
MODEL 9
REMARK VINA RESULT:      -6.8     14.650     18.435
REMARK  4 active torsions:
REMARK  status: ('A' for Active; 'I' for Inactive)
REMARK    1  A    between atoms: N_2  and  C_4 
REMARK    2  A    between atoms: C_4  and  C_5 
REMARK    3  A    between atoms: C_5  and  N_6 
REMARK    4  A    between atoms: C_8  and  C_16 
REMARK       I    between atoms: C_16  and  N_18 
ROOT
HETATM    1  C   UNK N   1      30.213  21.998  -4.434  0.00  0.00     0.256 C 
HETATM    2  O   UNK N   1      30.127  21.598  -3.284  0.00  0.00    -0.267 OA
HETATM    3  N   UNK N   1      29.471  23.074  -4.835  0.00  0.00    -0.348 N 
HETATM    4  C   UNK N   1      28.415  23.558  -3.970  0.00  0.00     0.129 C 
HETATM    5  C   UNK N   1      27.185  23.719  -4.858  0.00  0.00     0.063 C 
HETATM    6  C   UNK N   1      27.429  24.914  -5.794  0.00  0.00     0.092 A 
HETATM    7  C   UNK N   1      28.909  25.051  -6.213  0.00  0.00     0.063 C 
HETATM    8  C   UNK N   1      29.663  23.712  -6.135  0.00  0.00     0.129 C 
HETATM    9  C   UNK N   1      26.971  26.115  -5.079  0.00  0.00    -0.015 A 
HETATM   10  C   UNK N   1      27.409  26.614  -3.847  0.00  0.00     0.011 A 
HETATM   11  C   UNK N   1      26.765  27.740  -3.317  0.00  0.00     0.001 A 
HETATM   12  C   UNK N   1      25.705  28.338  -4.025  0.00  0.00     0.001 A 
HETATM   13  C   UNK N   1      25.299  27.808  -5.262  0.00  0.00     0.010 A 
HETATM   14  C   UNK N   1      25.965  26.684  -5.752  0.00  0.00    -0.025 A 
HETATM   15  C   UNK N   1      25.704  25.932  -6.982  0.00  0.00     0.208 A 
HETATM   16  O   UNK N   1      26.606  24.819  -6.961  0.00  0.00    -0.371 OA
ENDROOT
BRANCH   1  17
HETATM   17  C   UNK N   1      31.070  21.239  -5.380  0.00  0.00     0.060 A 
HETATM   18  C   UNK N   1      32.460  21.301  -5.453  0.00  0.00     0.109 A 
HETATM   19  N   UNK N   1      32.874  20.613  -6.540  0.00  0.00    -0.353 N 
HETATM   20  C   UNK N   1      31.782  20.119  -7.145  0.00  0.00     0.047 A 
HETATM   21  C   UNK N   1      30.654  20.485  -6.464  0.00  0.00     0.008 A 
HETATM   22  C   UNK N   1      31.726  19.373  -8.320  0.00  0.00     0.054 A 
HETATM   23  C   UNK N   1      29.383  20.127  -6.907  0.00  0.00     0.016 A 
HETATM   24  C   UNK N   1      29.291  19.360  -8.084  0.00  0.00     0.025 A 
HETATM   25  C   UNK N   1      30.459  18.986  -8.789  0.00  0.00     0.036 A 
HETATM   26 Cl   UNK N   1      30.331  18.045 -10.256  0.00  0.00    -0.084 Cl
BRANCH  19  27
HETATM   27  C   UNK N   1      34.240  20.567  -7.031  0.00  0.00     0.158 C 
BRANCH  27  28
HETATM   28  C   UNK N   1      35.131  19.766  -6.109  0.00  0.00     0.291 C 
BRANCH  28  29
HETATM   29  N   UNK N   1      34.523  18.465  -5.900  0.00  0.00     0.081 N 
HETATM   30  C   UNK N   1      34.677  18.125  -4.498  0.00  0.00     0.309 C 
HETATM   31  C   UNK N   1      35.302  17.508  -6.666  0.00  0.00     0.309 C 
ENDBRANCH  28  29
ENDBRANCH  27  28
ENDBRANCH  19  27
ENDBRANCH   1  17
TORSDOF 4
ENDMDL
