MODEL 1
REMARK VINA RESULT:      -6.1      0.000      0.000
REMARK  7 active torsions:
REMARK  status: ('A' for Active; 'I' for Inactive)
REMARK    1  A    between atoms: N_20  and  C_3 
REMARK    2  A    between atoms: C_9  and  C_8 
REMARK    3  A    between atoms: N_18  and  C_8 
REMARK    4  A    between atoms: C_15  and  C_12 
REMARK    5  A    between atoms: O_21  and  C_13 
REMARK    6  A    between atoms: O_23  and  C_14 
REMARK    7  A    between atoms: O_22  and  C_15 
ROOT
HETATM    1  C   UNK N   1      33.872  17.474   8.749  0.00  0.00     0.152 C 
HETATM    2  N   UNK N   1      33.976  16.579   9.670  0.00  0.00    -0.368 N 
ATOM      3  HN  UNK N   1      33.228  15.892   9.770  1.00  0.00     0.161 HD
ENDROOT
BRANCH   1   4
HETATM    4  C   UNK N   1      32.749  17.399   7.743  0.00  0.00     0.084 A 
HETATM    5  C   UNK N   1      31.399  17.575   8.159  0.00  0.00     0.104 A 
HETATM    6  C   UNK N   1      30.354  17.453   7.240  0.00  0.00     0.070 A 
HETATM    7  C   UNK N   1      30.620  17.159   5.914  0.00  0.00     0.053 A 
HETATM    8 Cl   UNK N   1      28.686  17.651   7.751  0.00  0.00    -0.081 Cl
HETATM    9  C   UNK N   1      31.924  16.984   5.461  0.00  0.00     0.070 A 
HETATM   10  C   UNK N   1      33.017  17.105   6.373  0.00  0.00     0.107 A 
HETATM   11 Cl   UNK N   1      32.088  16.597   3.751  0.00  0.00    -0.081 Cl
BRANCH   5  12
HETATM   12  O   UNK N   1      31.100  17.854   9.439  0.00  0.00    -0.358 OA
HETATM   13  H   UNK N   1      30.410  17.389   9.872  0.00  0.00     0.217 HD
ENDBRANCH   5  12
BRANCH  10  14
HETATM   14  O   UNK N   1      34.318  16.935   5.997  0.00  0.00    -0.353 OA
HETATM   15  C   UNK N   1      34.981  15.751   5.789  0.00  0.00     0.210 C 
ENDBRANCH  10  14
ENDBRANCH   1   4
BRANCH   1  16
HETATM   16  O   UNK N   1      34.820  18.433   8.646  0.00  0.00    -0.346 OA
HETATM   17  H   UNK N   1      35.102  18.897   9.409  0.00  0.00     0.219 HD
ENDBRANCH   1  16
BRANCH   2  18
HETATM   18  C   UNK N   1      35.107  16.503  10.567  0.00  0.00     0.157 C 
BRANCH  18  19
HETATM   19  C   UNK N   1      36.077  15.365  10.226  0.00  0.00     0.240 C 
HETATM   20  C   UNK N   1      35.378  14.355   9.344  0.00  0.00     0.039 C 
HETATM   21  C   UNK N   1      36.184  13.093   9.538  0.00  0.00     0.032 C 
HETATM   22  C   UNK N   1      36.998  13.325  10.806  0.00  0.00     0.273 C 
HETATM   23  N   UNK N   1      36.609  14.616  11.374  0.00  0.00     0.094 N 
BRANCH  23  24
HETATM   24  C   UNK N   1      35.602  14.342  12.400  0.00  0.00     0.268 C 
HETATM   25  C   UNK N   1      36.258  14.348  13.770  0.00  0.00     0.037 C 
ENDBRANCH  23  24
ENDBRANCH  18  19
ENDBRANCH   2  18
TORSDOF 7
ENDMDL
MODEL 2
REMARK VINA RESULT:      -6.1      0.828      2.844
REMARK  7 active torsions:
REMARK  status: ('A' for Active; 'I' for Inactive)
REMARK    1  A    between atoms: N_20  and  C_3 
REMARK    2  A    between atoms: C_9  and  C_8 
REMARK    3  A    between atoms: N_18  and  C_8 
REMARK    4  A    between atoms: C_15  and  C_12 
REMARK    5  A    between atoms: O_21  and  C_13 
REMARK    6  A    between atoms: O_23  and  C_14 
REMARK    7  A    between atoms: O_22  and  C_15 
ROOT
HETATM    1  C   UNK N   1      33.581  17.653   8.322  0.00  0.00     0.152 C 
HETATM    2  N   UNK N   1      33.733  16.749   9.226  0.00  0.00    -0.368 N 
ATOM      3  HN  UNK N   1      33.065  15.980   9.265  1.00  0.00     0.161 HD
ENDROOT
BRANCH   1   4
HETATM    4  C   UNK N   1      32.536  17.482   7.246  0.00  0.00     0.084 A 
HETATM    5  C   UNK N   1      32.919  17.406   5.878  0.00  0.00     0.104 A 
HETATM    6  C   UNK N   1      31.950  17.302   4.877  0.00  0.00     0.070 A 
HETATM    7  C   UNK N   1      30.606  17.274   5.205  0.00  0.00     0.053 A 
HETATM    8 Cl   UNK N   1      32.417  17.226   3.186  0.00  0.00    -0.081 Cl
HETATM    9  C   UNK N   1      30.185  17.340   6.529  0.00  0.00     0.070 A 
HETATM   10  C   UNK N   1      31.149  17.443   7.579  0.00  0.00     0.107 A 
HETATM   11 Cl   UNK N   1      28.442  17.309   6.773  0.00  0.00    -0.081 Cl
BRANCH   5  12
HETATM   12  O   UNK N   1      34.214  17.439   5.519  0.00  0.00    -0.358 OA
HETATM   13  H   UNK N   1      34.733  18.198   5.701  0.00  0.00     0.217 HD
ENDBRANCH   5  12
BRANCH  10  14
HETATM   14  O   UNK N   1      30.803  17.523   8.896  0.00  0.00    -0.353 OA
HETATM   15  C   UNK N   1      30.113  18.532   9.521  0.00  0.00     0.210 C 
ENDBRANCH  10  14
ENDBRANCH   1   4
BRANCH   1  16
HETATM   16  O   UNK N   1      34.418  18.715   8.298  0.00  0.00    -0.346 OA
HETATM   17  H   UNK N   1      34.439  19.312   9.020  0.00  0.00     0.219 HD
ENDBRANCH   1  16
BRANCH   2  18
HETATM   18  C   UNK N   1      34.811  16.775  10.189  0.00  0.00     0.157 C 
BRANCH  18  19
HETATM   19  C   UNK N   1      35.849  15.668   9.969  0.00  0.00     0.240 C 
HETATM   20  C   UNK N   1      35.202  14.507   9.248  0.00  0.00     0.039 C 
HETATM   21  C   UNK N   1      36.098  13.338   9.577  0.00  0.00     0.032 C 
HETATM   22  C   UNK N   1      36.923  13.787  10.779  0.00  0.00     0.273 C 
HETATM   23  N   UNK N   1      36.458  15.113  11.187  0.00  0.00     0.094 N 
BRANCH  23  24
HETATM   24  C   UNK N   1      35.496  14.911  12.271  0.00  0.00     0.268 C 
HETATM   25  C   UNK N   1      36.202  14.302  13.470  0.00  0.00     0.037 C 
ENDBRANCH  23  24
ENDBRANCH  18  19
ENDBRANCH   2  18
TORSDOF 7
ENDMDL
MODEL 3
REMARK VINA RESULT:      -5.9      1.022      3.283
REMARK  7 active torsions:
REMARK  status: ('A' for Active; 'I' for Inactive)
REMARK    1  A    between atoms: N_20  and  C_3 
REMARK    2  A    between atoms: C_9  and  C_8 
REMARK    3  A    between atoms: N_18  and  C_8 
REMARK    4  A    between atoms: C_15  and  C_12 
REMARK    5  A    between atoms: O_21  and  C_13 
REMARK    6  A    between atoms: O_23  and  C_14 
REMARK    7  A    between atoms: O_22  and  C_15 
ROOT
HETATM    1  C   UNK N   1      33.610  17.552   8.452  0.00  0.00     0.152 C 
HETATM    2  N   UNK N   1      33.713  16.631   9.346  0.00  0.00    -0.368 N 
ATOM      3  HN  UNK N   1      33.024  15.878   9.354  1.00  0.00     0.161 HD
ENDROOT
BRANCH   1   4
HETATM    4  C   UNK N   1      32.591  17.425   7.345  0.00  0.00     0.084 A 
HETATM    5  C   UNK N   1      33.011  17.366   5.987  0.00  0.00     0.104 A 
HETATM    6  C   UNK N   1      32.069  17.303   4.957  0.00  0.00     0.070 A 
HETATM    7  C   UNK N   1      30.715  17.297   5.247  0.00  0.00     0.053 A 
HETATM    8 Cl   UNK N   1      32.581  17.248   3.278  0.00  0.00    -0.081 Cl
HETATM    9  C   UNK N   1      30.259  17.347   6.560  0.00  0.00     0.070 A 
HETATM   10  C   UNK N   1      31.195  17.410   7.638  0.00  0.00     0.107 A 
HETATM   11 Cl   UNK N   1      28.509  17.351   6.756  0.00  0.00    -0.081 Cl
BRANCH   5  12
HETATM   12  O   UNK N   1      34.316  17.377   5.664  0.00  0.00    -0.358 OA
HETATM   13  H   UNK N   1      34.834  16.604   5.779  0.00  0.00     0.217 HD
ENDBRANCH   5  12
BRANCH  10  14
HETATM   14  O   UNK N   1      30.814  17.472   8.947  0.00  0.00    -0.353 OA
HETATM   15  C   UNK N   1      30.082  18.459   9.560  0.00  0.00     0.210 C 
ENDBRANCH  10  14
ENDBRANCH   1   4
BRANCH   1  16
HETATM   16  O   UNK N   1      34.473  18.593   8.469  0.00  0.00    -0.346 OA
HETATM   17  H   UNK N   1      35.349  18.480   8.155  0.00  0.00     0.219 HD
ENDBRANCH   1  16
BRANCH   2  18
HETATM   18  C   UNK N   1      34.763  16.614  10.339  0.00  0.00     0.157 C 
BRANCH  18  19
HETATM   19  C   UNK N   1      34.868  15.281  11.090  0.00  0.00     0.240 C 
HETATM   20  C   UNK N   1      35.864  15.416  12.219  0.00  0.00     0.039 C 
HETATM   21  C   UNK N   1      36.282  13.993  12.499  0.00  0.00     0.032 C 
HETATM   22  C   UNK N   1      35.854  13.197  11.271  0.00  0.00     0.273 C 
HETATM   23  N   UNK N   1      35.306  14.130  10.286  0.00  0.00     0.094 N 
BRANCH  23  24
HETATM   24  C   UNK N   1      36.389  14.454   9.358  0.00  0.00     0.268 C 
HETATM   25  C   UNK N   1      37.070  13.174   8.904  0.00  0.00     0.037 C 
ENDBRANCH  23  24
ENDBRANCH  18  19
ENDBRANCH   2  18
TORSDOF 7
ENDMDL
MODEL 4
REMARK VINA RESULT:      -5.9      2.682      4.235
REMARK  7 active torsions:
REMARK  status: ('A' for Active; 'I' for Inactive)
REMARK    1  A    between atoms: N_20  and  C_3 
REMARK    2  A    between atoms: C_9  and  C_8 
REMARK    3  A    between atoms: N_18  and  C_8 
REMARK    4  A    between atoms: C_15  and  C_12 
REMARK    5  A    between atoms: O_21  and  C_13 
REMARK    6  A    between atoms: O_23  and  C_14 
REMARK    7  A    between atoms: O_22  and  C_15 
ROOT
HETATM    1  C   UNK N   1      36.128  15.001  10.514  0.00  0.00     0.152 C 
HETATM    2  N   UNK N   1      35.880  13.937  11.196  0.00  0.00    -0.368 N 
ATOM      3  HN  UNK N   1      35.110  13.336  10.901  1.00  0.00     0.161 HD
ENDROOT
BRANCH   1   4
HETATM    4  C   UNK N   1      35.401  15.257   9.216  0.00  0.00     0.084 A 
HETATM    5  C   UNK N   1      34.596  16.420   9.061  0.00  0.00     0.104 A 
HETATM    6  C   UNK N   1      33.880  16.632   7.881  0.00  0.00     0.070 A 
HETATM    7  C   UNK N   1      33.943  15.712   6.849  0.00  0.00     0.053 A 
HETATM    8 Cl   UNK N   1      32.871  18.057   7.691  0.00  0.00    -0.081 Cl
HETATM    9  C   UNK N   1      34.721  14.563   6.954  0.00  0.00     0.070 A 
HETATM   10  C   UNK N   1      35.470  14.316   8.145  0.00  0.00     0.107 A 
HETATM   11 Cl   UNK N   1      34.678  13.488   5.560  0.00  0.00    -0.081 Cl
BRANCH   5  12
HETATM   12  O   UNK N   1      34.503  17.333  10.043  0.00  0.00    -0.358 OA
HETATM   13  H   UNK N   1      34.633  17.077  10.936  0.00  0.00     0.217 HD
ENDBRANCH   5  12
BRANCH  10  14
HETATM   14  O   UNK N   1      36.243  13.205   8.317  0.00  0.00    -0.353 OA
HETATM   15  C   UNK N   1      37.492  12.966   7.799  0.00  0.00     0.210 C 
ENDBRANCH  10  14
ENDBRANCH   1   4
BRANCH   1  16
HETATM   16  O   UNK N   1      37.100  15.844  10.931  0.00  0.00    -0.346 OA
HETATM   17  H   UNK N   1      37.415  16.516  10.359  0.00  0.00     0.219 HD
ENDBRANCH   1  16
BRANCH   2  18
HETATM   18  C   UNK N   1      36.644  13.556  12.363  0.00  0.00     0.157 C 
BRANCH  18  19
HETATM   19  C   UNK N   1      35.880  13.749  13.678  0.00  0.00     0.240 C 
HETATM   20  C   UNK N   1      36.824  13.550  14.843  0.00  0.00     0.039 C 
HETATM   21  C   UNK N   1      35.906  13.217  15.994  0.00  0.00     0.032 C 
HETATM   22  C   UNK N   1      34.579  12.825  15.353  0.00  0.00     0.273 C 
HETATM   23  N   UNK N   1      34.750  12.834  13.899  0.00  0.00     0.094 N 
BRANCH  23  24
HETATM   24  C   UNK N   1      35.035  11.457  13.497  0.00  0.00     0.268 C 
HETATM   25  C   UNK N   1      33.968  10.532  14.056  0.00  0.00     0.037 C 
ENDBRANCH  23  24
ENDBRANCH  18  19
ENDBRANCH   2  18
TORSDOF 7
ENDMDL
MODEL 5
REMARK VINA RESULT:      -5.9      4.121      7.158
REMARK  7 active torsions:
REMARK  status: ('A' for Active; 'I' for Inactive)
REMARK    1  A    between atoms: N_20  and  C_3 
REMARK    2  A    between atoms: C_9  and  C_8 
REMARK    3  A    between atoms: N_18  and  C_8 
REMARK    4  A    between atoms: C_15  and  C_12 
REMARK    5  A    between atoms: O_21  and  C_13 
REMARK    6  A    between atoms: O_23  and  C_14 
REMARK    7  A    between atoms: O_22  and  C_15 
ROOT
HETATM    1  C   UNK N   1      35.667  15.322  10.866  0.00  0.00     0.152 C 
HETATM    2  N   UNK N   1      34.670  15.631  10.112  0.00  0.00    -0.368 N 
ATOM      3  HN  UNK N   1      33.850  15.024  10.114  1.00  0.00     0.161 HD
ENDROOT
BRANCH   1   4
HETATM    4  C   UNK N   1      35.550  14.182  11.850  0.00  0.00     0.084 A 
HETATM    5  C   UNK N   1      36.060  14.320  13.171  0.00  0.00     0.104 A 
HETATM    6  C   UNK N   1      36.002  13.249  14.067  0.00  0.00     0.070 A 
HETATM    7  C   UNK N   1      35.449  12.042  13.678  0.00  0.00     0.053 A 
HETATM    8 Cl   UNK N   1      36.646  13.407  15.693  0.00  0.00    -0.081 Cl
HETATM    9  C   UNK N   1      34.933  11.863  12.398  0.00  0.00     0.070 A 
HETATM   10  C   UNK N   1      34.973  12.938  11.458  0.00  0.00     0.107 A 
HETATM   11 Cl   UNK N   1      34.282  10.263  12.058  0.00  0.00    -0.081 Cl
BRANCH   5  12
HETATM   12  O   UNK N   1      36.612  15.474  13.584  0.00  0.00    -0.358 OA
HETATM   13  H   UNK N   1      37.145  15.976  12.998  0.00  0.00     0.217 HD
ENDBRANCH   5  12
BRANCH  10  14
HETATM   14  O   UNK N   1      34.495  12.827  10.184  0.00  0.00    -0.353 OA
HETATM   15  C   UNK N   1      35.050  12.129   9.140  0.00  0.00     0.210 C 
ENDBRANCH  10  14
ENDBRANCH   1   4
BRANCH   1  16
HETATM   16  O   UNK N   1      36.789  16.077  10.825  0.00  0.00    -0.346 OA
HETATM   17  H   UNK N   1      37.438  15.988  11.495  0.00  0.00     0.219 HD
ENDBRANCH   1  16
BRANCH   2  18
HETATM   18  C   UNK N   1      34.661  16.800   9.262  0.00  0.00     0.157 C 
BRANCH  18  19
HETATM   19  C   UNK N   1      33.254  17.211   8.810  0.00  0.00     0.240 C 
HETATM   20  C   UNK N   1      32.350  15.999   8.811  0.00  0.00     0.039 C 
HETATM   21  C   UNK N   1      31.235  16.384   7.869  0.00  0.00     0.032 C 
HETATM   22  C   UNK N   1      31.771  17.569   7.073  0.00  0.00     0.273 C 
HETATM   23  N   UNK N   1      33.162  17.796   7.464  0.00  0.00     0.094 N 
BRANCH  23  24
HETATM   24  C   UNK N   1      33.998  17.110   6.479  0.00  0.00     0.268 C 
HETATM   25  C   UNK N   1      33.452  17.362   5.085  0.00  0.00     0.037 C 
ENDBRANCH  23  24
ENDBRANCH  18  19
ENDBRANCH   2  18
TORSDOF 7
ENDMDL
MODEL 6
REMARK VINA RESULT:      -5.7     15.018     18.207
REMARK  7 active torsions:
REMARK  status: ('A' for Active; 'I' for Inactive)
REMARK    1  A    between atoms: N_20  and  C_3 
REMARK    2  A    between atoms: C_9  and  C_8 
REMARK    3  A    between atoms: N_18  and  C_8 
REMARK    4  A    between atoms: C_15  and  C_12 
REMARK    5  A    between atoms: O_21  and  C_13 
REMARK    6  A    between atoms: O_23  and  C_14 
REMARK    7  A    between atoms: O_22  and  C_15 
ROOT
HETATM    1  C   UNK N   1      26.881  25.052  -3.973  0.00  0.00     0.152 C 
HETATM    2  N   UNK N   1      26.708  26.292  -4.278  0.00  0.00    -0.368 N 
ATOM      3  HN  UNK N   1      26.990  26.611  -5.205  1.00  0.00     0.161 HD
ENDROOT
BRANCH   1   4
HETATM    4  C   UNK N   1      27.337  24.069  -5.025  0.00  0.00     0.084 A 
HETATM    5  C   UNK N   1      26.493  23.755  -6.127  0.00  0.00     0.104 A 
HETATM    6  C   UNK N   1      26.889  22.806  -7.072  0.00  0.00     0.070 A 
HETATM    7  C   UNK N   1      28.106  22.158  -6.946  0.00  0.00     0.053 A 
HETATM    8 Cl   UNK N   1      25.845  22.402  -8.425  0.00  0.00    -0.081 Cl
HETATM    9  C   UNK N   1      28.965  22.437  -5.888  0.00  0.00     0.070 A 
HETATM   10  C   UNK N   1      28.594  23.405  -4.905  0.00  0.00     0.107 A 
HETATM   11 Cl   UNK N   1      30.464  21.514  -5.865  0.00  0.00    -0.081 Cl
BRANCH   5  12
HETATM   12  O   UNK N   1      25.301  24.357  -6.280  0.00  0.00    -0.358 OA
HETATM   13  H   UNK N   1      24.685  24.026  -6.905  0.00  0.00     0.217 HD
ENDBRANCH   5  12
BRANCH  10  14
HETATM   14  O   UNK N   1      29.384  23.717  -3.837  0.00  0.00    -0.353 OA
HETATM   15  C   UNK N   1      29.662  22.934  -2.744  0.00  0.00     0.210 C 
ENDBRANCH  10  14
ENDBRANCH   1   4
BRANCH   1  16
HETATM   16  O   UNK N   1      26.576  24.627  -2.726  0.00  0.00    -0.346 OA
HETATM   17  H   UNK N   1      25.875  24.018  -2.597  0.00  0.00     0.219 HD
ENDBRANCH   1  16
BRANCH   2  18
HETATM   18  C   UNK N   1      26.130  27.251  -3.364  0.00  0.00     0.157 C 
BRANCH  18  19
HETATM   19  C   UNK N   1      26.208  28.696  -3.873  0.00  0.00     0.240 C 
HETATM   20  C   UNK N   1      27.036  28.741  -5.137  0.00  0.00     0.039 C 
HETATM   21  C   UNK N   1      27.492  30.178  -5.215  0.00  0.00     0.032 C 
HETATM   22  C   UNK N   1      27.276  30.747  -3.817  0.00  0.00     0.273 C 
HETATM   23  N   UNK N   1      26.813  29.666  -2.947  0.00  0.00     0.094 N 
BRANCH  23  24
HETATM   24  C   UNK N   1      27.990  29.144  -2.253  0.00  0.00     0.268 C 
HETATM   25  C   UNK N   1      28.275  29.991  -1.025  0.00  0.00     0.037 C 
ENDBRANCH  23  24
ENDBRANCH  18  19
ENDBRANCH   2  18
TORSDOF 7
ENDMDL
MODEL 7
REMARK VINA RESULT:      -5.7     14.719     17.673
REMARK  7 active torsions:
REMARK  status: ('A' for Active; 'I' for Inactive)
REMARK    1  A    between atoms: N_20  and  C_3 
REMARK    2  A    between atoms: C_9  and  C_8 
REMARK    3  A    between atoms: N_18  and  C_8 
REMARK    4  A    between atoms: C_15  and  C_12 
REMARK    5  A    between atoms: O_21  and  C_13 
REMARK    6  A    between atoms: O_23  and  C_14 
REMARK    7  A    between atoms: O_22  and  C_15 
ROOT
HETATM    1  C   UNK N   1      27.617  24.510  -3.482  0.00  0.00     0.152 C 
HETATM    2  N   UNK N   1      27.425  25.670  -4.009  0.00  0.00    -0.368 N 
ATOM      3  HN  UNK N   1      28.053  25.979  -4.750  1.00  0.00     0.161 HD
ENDROOT
BRANCH   1   4
HETATM    4  C   UNK N   1      28.644  23.572  -4.068  0.00  0.00     0.084 A 
HETATM    5  C   UNK N   1      29.712  23.084  -3.263  0.00  0.00     0.104 A 
HETATM    6  C   UNK N   1      30.694  22.258  -3.816  0.00  0.00     0.070 A 
HETATM    7  C   UNK N   1      30.641  21.908  -5.154  0.00  0.00     0.053 A 
HETATM    8 Cl   UNK N   1      32.023  21.667  -2.832  0.00  0.00    -0.081 Cl
HETATM    9  C   UNK N   1      29.614  22.357  -5.978  0.00  0.00     0.070 A 
HETATM   10  C   UNK N   1      28.590  23.200  -5.444  0.00  0.00     0.107 A 
HETATM   11 Cl   UNK N   1      29.703  21.835  -7.656  0.00  0.00    -0.081 Cl
BRANCH   5  12
HETATM   12  O   UNK N   1      29.802  23.408  -1.962  0.00  0.00    -0.358 OA
HETATM   13  H   UNK N   1      29.027  23.605  -1.472  0.00  0.00     0.217 HD
ENDBRANCH   5  12
BRANCH  10  14
HETATM   14  O   UNK N   1      27.561  23.683  -6.199  0.00  0.00    -0.353 OA
HETATM   15  C   UNK N   1      26.425  23.019  -6.590  0.00  0.00     0.210 C 
ENDBRANCH  10  14
ENDBRANCH   1   4
BRANCH   1  16
HETATM   16  O   UNK N   1      26.836  24.112  -2.452  0.00  0.00    -0.346 OA
HETATM   17  H   UNK N   1      25.904  24.197  -2.510  0.00  0.00     0.219 HD
ENDBRANCH   1  16
BRANCH   2  18
HETATM   18  C   UNK N   1      26.357  26.553  -3.596  0.00  0.00     0.157 C 
BRANCH  18  19
HETATM   19  C   UNK N   1      26.320  27.869  -4.383  0.00  0.00     0.240 C 
HETATM   20  C   UNK N   1      27.410  27.861  -5.430  0.00  0.00     0.039 C 
HETATM   21  C   UNK N   1      27.631  29.325  -5.728  0.00  0.00     0.032 C 
HETATM   22  C   UNK N   1      26.992  30.074  -4.563  0.00  0.00     0.273 C 
HETATM   23  N   UNK N   1      26.514  29.092  -3.590  0.00  0.00     0.094 N 
BRANCH  23  24
HETATM   24  C   UNK N   1      27.558  28.959  -2.573  0.00  0.00     0.268 C 
HETATM   25  C   UNK N   1      27.952  30.335  -2.066  0.00  0.00     0.037 C 
ENDBRANCH  23  24
ENDBRANCH  18  19
ENDBRANCH   2  18
TORSDOF 7
ENDMDL
MODEL 8
REMARK VINA RESULT:      -5.6      6.598     10.613
REMARK  7 active torsions:
REMARK  status: ('A' for Active; 'I' for Inactive)
REMARK    1  A    between atoms: N_20  and  C_3 
REMARK    2  A    between atoms: C_9  and  C_8 
REMARK    3  A    between atoms: N_18  and  C_8 
REMARK    4  A    between atoms: C_15  and  C_12 
REMARK    5  A    between atoms: O_21  and  C_13 
REMARK    6  A    between atoms: O_23  and  C_14 
REMARK    7  A    between atoms: O_22  and  C_15 
ROOT
HETATM    1  C   UNK N   1      26.696  19.258   5.574  0.00  0.00     0.152 C 
HETATM    2  N   UNK N   1      25.691  18.529   5.231  0.00  0.00    -0.368 N 
ATOM      3  HN  UNK N   1      25.772  17.516   5.313  1.00  0.00     0.161 HD
ENDROOT
BRANCH   1   4
HETATM    4  C   UNK N   1      27.898  18.629   6.237  0.00  0.00     0.084 A 
HETATM    5  C   UNK N   1      28.134  18.824   7.627  0.00  0.00     0.104 A 
HETATM    6  C   UNK N   1      29.273  18.288   8.232  0.00  0.00     0.070 A 
HETATM    7  C   UNK N   1      30.187  17.564   7.486  0.00  0.00     0.053 A 
HETATM    8 Cl   UNK N   1      29.579  18.539   9.943  0.00  0.00    -0.081 Cl
HETATM    9  C   UNK N   1      29.995  17.344   6.126  0.00  0.00     0.070 A 
HETATM   10  C   UNK N   1      28.838  17.875   5.475  0.00  0.00     0.107 A 
HETATM   11 Cl   UNK N   1      31.258  16.420   5.320  0.00  0.00    -0.081 Cl
BRANCH   5  12
HETATM   12  O   UNK N   1      27.275  19.527   8.384  0.00  0.00    -0.358 OA
HETATM   13  H   UNK N   1      27.534  20.353   8.746  0.00  0.00     0.217 HD
ENDBRANCH   5  12
BRANCH  10  14
HETATM   14  O   UNK N   1      28.595  17.706   4.143  0.00  0.00    -0.353 OA
HETATM   15  C   UNK N   1      28.206  16.555   3.502  0.00  0.00     0.210 C 
ENDBRANCH  10  14
ENDBRANCH   1   4
BRANCH   1  16
HETATM   16  O   UNK N   1      26.631  20.599   5.408  0.00  0.00    -0.346 OA
HETATM   17  H   UNK N   1      27.302  21.148   5.762  0.00  0.00     0.219 HD
ENDBRANCH   1  16
BRANCH   2  18
HETATM   18  C   UNK N   1      24.452  19.084   4.734  0.00  0.00     0.157 C 
BRANCH  18  19
HETATM   19  C   UNK N   1      23.263  18.123   4.860  0.00  0.00     0.240 C 
HETATM   20  C   UNK N   1      23.469  16.944   3.935  0.00  0.00     0.039 C 
HETATM   21  C   UNK N   1      22.075  16.403   3.730  0.00  0.00     0.032 C 
HETATM   22  C   UNK N   1      21.138  17.521   4.174  0.00  0.00     0.273 C 
HETATM   23  N   UNK N   1      21.948  18.689   4.524  0.00  0.00     0.094 N 
BRANCH  23  24
HETATM   24  C   UNK N   1      21.977  19.554   3.345  0.00  0.00     0.268 C 
HETATM   25  C   UNK N   1      20.634  20.246   3.188  0.00  0.00     0.037 C 
ENDBRANCH  23  24
ENDBRANCH  18  19
ENDBRANCH   2  18
TORSDOF 7
ENDMDL
MODEL 9
REMARK VINA RESULT:      -5.5      4.993      8.120
REMARK  7 active torsions:
REMARK  status: ('A' for Active; 'I' for Inactive)
REMARK    1  A    between atoms: N_20  and  C_3 
REMARK    2  A    between atoms: C_9  and  C_8 
REMARK    3  A    between atoms: N_18  and  C_8 
REMARK    4  A    between atoms: C_15  and  C_12 
REMARK    5  A    between atoms: O_21  and  C_13 
REMARK    6  A    between atoms: O_23  and  C_14 
REMARK    7  A    between atoms: O_22  and  C_15 
ROOT
HETATM    1  C   UNK N   1      35.626  13.207  11.529  0.00  0.00     0.152 C 
HETATM    2  N   UNK N   1      34.963  14.212  11.070  0.00  0.00    -0.368 N 
ATOM      3  HN  UNK N   1      34.526  14.852  11.732  1.00  0.00     0.161 HD
ENDROOT
BRANCH   1   4
HETATM    4  C   UNK N   1      35.884  13.082  13.011  0.00  0.00     0.084 A 
HETATM    5  C   UNK N   1      36.394  14.189  13.747  0.00  0.00     0.104 A 
HETATM    6  C   UNK N   1      36.684  14.060  15.107  0.00  0.00     0.070 A 
HETATM    7  C   UNK N   1      36.481  12.854  15.755  0.00  0.00     0.053 A 
HETATM    8 Cl   UNK N   1      37.330  15.417  16.016  0.00  0.00    -0.081 Cl
HETATM    9  C   UNK N   1      35.979  11.747  15.078  0.00  0.00     0.070 A 
HETATM   10  C   UNK N   1      35.668  11.844  13.686  0.00  0.00     0.107 A 
HETATM   11 Cl   UNK N   1      35.797  10.286  16.042  0.00  0.00    -0.081 Cl
BRANCH   5  12
HETATM   12  O   UNK N   1      36.612  15.374  13.152  0.00  0.00    -0.358 OA
HETATM   13  H   UNK N   1      36.032  15.676  12.480  0.00  0.00     0.217 HD
ENDBRANCH   5  12
BRANCH  10  14
HETATM   14  O   UNK N   1      35.184  10.795  12.961  0.00  0.00    -0.353 OA
HETATM   15  C   UNK N   1      33.910  10.283  12.976  0.00  0.00     0.210 C 
ENDBRANCH  10  14
ENDBRANCH   1   4
BRANCH   1  16
HETATM   16  O   UNK N   1      36.155  12.311  10.666  0.00  0.00    -0.346 OA
HETATM   17  H   UNK N   1      36.981  11.910  10.853  0.00  0.00     0.219 HD
ENDBRANCH   1  16
BRANCH   2  18
HETATM   18  C   UNK N   1      34.812  14.472   9.656  0.00  0.00     0.157 C 
BRANCH  18  19
HETATM   19  C   UNK N   1      33.419  14.991   9.280  0.00  0.00     0.240 C 
HETATM   20  C   UNK N   1      32.906  14.232   8.078  0.00  0.00     0.039 C 
HETATM   21  C   UNK N   1      31.862  15.152   7.492  0.00  0.00     0.032 C 
HETATM   22  C   UNK N   1      32.138  16.519   8.109  0.00  0.00     0.273 C 
HETATM   23  N   UNK N   1      33.342  16.419   8.933  0.00  0.00     0.094 N 
BRANCH  23  24
HETATM   24  C   UNK N   1      34.462  16.871   8.107  0.00  0.00     0.268 C 
HETATM   25  C   UNK N   1      34.569  18.385   8.182  0.00  0.00     0.037 C 
ENDBRANCH  23  24
ENDBRANCH  18  19
ENDBRANCH   2  18
TORSDOF 7
ENDMDL
