REMARK  2 active torsions:
REMARK  status: ('A' for Active; 'I' for Inactive)
REMARK    1  A    between atoms: C_13  and  C_11 
REMARK    2  A    between atoms: N_21  and  C_11 
REMARK       I    between atoms: N_22  and  C_16 
ROOT
HETATM    1  C   UNK N   1      11.237   3.146  -0.188  0.00  0.00     0.035 A 
HETATM    2  C   UNK N   1      10.029   3.668   0.264  0.00  0.00     0.107 A 
HETATM    3  C   UNK N   1      11.296   1.794  -0.517  0.00  0.00     0.107 A 
HETATM    4  C   UNK N   1       6.612  -1.465  -0.089  0.00  0.00     0.293 C 
HETATM    5  C   UNK N   1       5.583   0.265   1.037  0.00  0.00     0.293 C 
HETATM    6  C   UNK N   1       7.911  -0.669  -0.299  0.00  0.00     0.171 C 
HETATM    7  C   UNK N   1       6.663   1.293   0.774  0.00  0.00     0.171 C 
HETATM    8  C   UNK N   1       9.012   1.538   0.052  0.00  0.00     0.679 A 
HETATM    9  N   UNK N   1       8.944   2.860   0.381  0.00  0.00    -0.202 N 
ATOM     10  HN  UNK N   1       8.064   3.248   0.720  1.00  0.00     0.183 HD
HETATM   11  N   UNK N   1      10.188   1.017  -0.398  0.00  0.00    -0.202 N 
ATOM     12  HN  UNK N   1      10.237   0.029  -0.648  1.00  0.00     0.183 HD
HETATM   13  N   UNK N   1       5.454  -0.586  -0.132  0.00  0.00     0.095 N 
HETATM   14  N   UNK N   1       7.863   0.710   0.190  0.00  0.00    -0.214 N 
ENDROOT
BRANCH  13  15
HETATM   15  C   UNK N   1       4.248  -1.397   0.029  0.00  0.00     0.311 C 
BRANCH  15  16
HETATM   16  C   UNK N   1       2.984  -0.584  -0.112  0.00  0.00    -0.027 A 
HETATM   17  C   UNK N   1       3.027   0.792  -0.466  0.00  0.00     0.012 A 
HETATM   18  C   UNK N   1       1.846   1.548  -0.545  0.00  0.00     0.040 A 
HETATM   19  C   UNK N   1       0.650   0.898  -0.267  0.00  0.00     0.105 A 
HETATM   20  C   UNK N   1       0.599  -0.399   0.059  0.00  0.00     0.105 A 
HETATM   21  O   UNK N   1      -0.582   1.401  -0.268  0.00  0.00    -0.323 OA
HETATM   22  C   UNK N   1       1.741  -1.193   0.152  0.00  0.00     0.048 A 
HETATM   23  O   UNK N   1      -0.669  -0.747   0.269  0.00  0.00    -0.323 OA
HETATM   24  C   UNK N   1      -1.475   0.380   0.072  0.00  0.00     0.352 A 
ENDBRANCH  15  16
ENDBRANCH  13  15
TORSDOF 2
