MODEL 1
REMARK VINA RESULT:      -7.0      0.000      0.000
REMARK  20 active torsions:
REMARK  status: ('A' for Active; 'I' for Inactive)
REMARK    1  A    between atoms: C_2  and  C_3 
REMARK    2  A    between atoms: C_3  and  C_5 
REMARK    3  A    between atoms: C_5  and  C_6 
REMARK    4  A    between atoms: C_5  and  N_33 
REMARK    5  A    between atoms: C_6  and  C_7 
REMARK    6  A    between atoms: C_6  and  O_31 
REMARK    7  A    between atoms: C_7  and  C_8 
REMARK       I    between atoms: C_8  and  N_10 
REMARK    8  A    between atoms: C_14  and  C_15 
REMARK    9  A    between atoms: C_15  and  C_16 
REMARK   10  A    between atoms: C_15  and  O_29 
REMARK   11  A    between atoms: C_16  and  C_18 
REMARK       I    between atoms: C_18  and  N_20 
REMARK   12  A    between atoms: N_20  and  C_21 
REMARK   13  A    between atoms: C_21  and  C_22 
REMARK   14  A    between atoms: C_22  and  C_23 
REMARK       I    between atoms: N_33  and  C_35 
REMARK   15  A    between atoms: C_35  and  C_37 
REMARK   16  A    between atoms: C_37  and  C_38 
REMARK   17  A    between atoms: C_37  and  N_41 
REMARK       I    between atoms: N_41  and  C_42 
REMARK   18  A    between atoms: C_42  and  C_44 
REMARK   19  A    between atoms: C_44  and  C_45 
REMARK   20  A    between atoms: C_44  and  N_48 
ROOT
HETATM    1  C   UNK N   1      25.790  17.015   4.303  0.00  0.00     0.152 C 
ENDROOT
BRANCH   1   2
HETATM    2  C   UNK N   1      26.842  18.111   4.630  0.00  0.00     0.119 C 
BRANCH   2   3
HETATM    3  C   UNK N   1      26.341  19.553   4.837  0.00  0.00     0.006 C 
HETATM    4  C   UNK N   1      26.838  20.160   6.139  0.00  0.00     0.012 C 
BRANCH   3   5
HETATM    5  C   UNK N   1      26.428  20.499   3.635  0.00  0.00     0.002 C 
HETATM    6  C   UNK N   1      25.219  20.424   2.714  0.00  0.00     0.005 C 
ENDBRANCH   3   5
ENDBRANCH   2   3
BRANCH   2   7
HETATM    7  N   UNK N   1      28.200  17.730   5.088  0.00  0.00    -0.347 N 
HETATM    8  C   UNK N   1      29.333  18.196   4.331  0.00  0.00     0.153 C 
HETATM    9  C   UNK N   1      28.420  17.117   6.304  0.00  0.00     0.243 C 
HETATM   10  O   UNK N   1      27.496  16.676   6.959  0.00  0.00    -0.271 OA
BRANCH   9  11
HETATM   11  C   UNK N   1      29.794  17.058   6.948  0.00  0.00     0.180 C 
BRANCH  11  12
HETATM   12  C   UNK N   1      30.089  17.874   8.223  0.00  0.00     0.009 C 
HETATM   13  C   UNK N   1      31.556  18.008   8.595  0.00  0.00     0.012 C 
HETATM   14  C   UNK N   1      29.265  17.427   9.415  0.00  0.00     0.012 C 
ENDBRANCH  11  12
BRANCH  11  15
HETATM   15  N   UNK N   1      30.186  15.674   7.084  0.00  0.00    -0.346 N 
HETATM   16  C   UNK N   1      31.175  15.115   6.349  0.00  0.00     0.252 C 
HETATM   17  O   UNK N   1      31.420  13.927   6.487  0.00  0.00    -0.271 OA
HETATM   18  H   UNK N   1      29.713  15.113   7.740  0.00  0.00     0.163 HD
BRANCH  16  19
HETATM   19  C   UNK N   1      31.978  15.942   5.357  0.00  0.00     0.316 C 
BRANCH  19  20
HETATM   20  C   UNK N   1      33.418  16.166   5.868  0.00  0.00     0.020 C 
HETATM   21  C   UNK N   1      33.681  15.521   7.221  0.00  0.00     0.012 C 
HETATM   22  C   UNK N   1      33.762  17.645   5.917  0.00  0.00     0.012 C 
ENDBRANCH  19  20
BRANCH  19  23
HETATM   23  N   UNK N   1      31.953  15.337   4.013  0.00  0.00     0.094 N 
HETATM   24  C   UNK N   1      31.928  16.397   3.016  0.00  0.00     0.310 C 
HETATM   25  C   UNK N   1      33.190  14.607   3.768  0.00  0.00     0.310 C 
ENDBRANCH  19  23
ENDBRANCH  16  19
ENDBRANCH  11  15
ENDBRANCH   9  11
ENDBRANCH   2   7
ENDBRANCH   1   2
BRANCH   1  26
HETATM   26  C   UNK N   1      24.646  16.896   5.318  0.00  0.00     0.137 C 
BRANCH  26  27
HETATM   27  C   UNK N   1      24.278  15.469   5.630  0.00  0.00     0.222 C 
HETATM   28  O   UNK N   1      24.806  14.929   6.590  0.00  0.00    -0.273 OA
HETATM   29  N   UNK N   1      23.378  14.781   4.873  0.00  0.00    -0.345 N 
HETATM   30  C   UNK N   1      23.077  13.401   5.110  0.00  0.00     0.126 C 
HETATM   31  C   UNK N   1      22.625  15.394   3.816  0.00  0.00     0.117 C 
HETATM   32  C   UNK N   1      22.042  13.032   4.060  0.00  0.00     0.022 C 
HETATM   33  C   UNK N   1      21.833  14.266   3.178  0.00  0.00     0.029 C 
BRANCH  31  34
HETATM   34  C   UNK N   1      21.742  16.475   4.444  0.00  0.00     0.156 C 
BRANCH  34  35
HETATM   35  C   UNK N   1      20.747  16.033   5.517  0.00  0.00     0.105 C 
HETATM   36  C   UNK N   1      19.269  16.055   5.150  0.00  0.00     0.022 C 
BRANCH  35  37
HETATM   37  C   UNK N   1      21.121  16.612   6.847  0.00  0.00     0.224 C 
HETATM   38  O   UNK N   1      21.286  17.818   6.926  0.00  0.00    -0.273 OA
HETATM   39  N   UNK N   1      21.221  15.865   7.970  0.00  0.00    -0.360 N 
HETATM   40  H   UNK N   1      21.344  16.337   8.825  0.00  0.00     0.162 HD
BRANCH  39  41
HETATM   41  C   UNK N   1      21.162  14.424   8.003  0.00  0.00     0.127 C 
BRANCH  41  42
HETATM   42  C   UNK N   1      20.903  13.953   9.441  0.00  0.00     0.058 C 
BRANCH  42  43
HETATM   43  C   UNK N   1      22.108  13.293  10.042  0.00  0.00    -0.057 A 
HETATM   44  C   UNK N   1      23.349  13.411   9.415  0.00  0.00     0.007 A 
HETATM   45  C   UNK N   1      24.460  12.741   9.936  0.00  0.00     0.001 A 
HETATM   46  C   UNK N   1      24.331  11.949  11.082  0.00  0.00     0.000 A 
HETATM   47  C   UNK N   1      23.094  11.841  11.721  0.00  0.00     0.001 A 
HETATM   48  C   UNK N   1      21.987  12.515  11.206  0.00  0.00     0.007 A 
ENDBRANCH  42  43
ENDBRANCH  41  42
ENDBRANCH  39  41
ENDBRANCH  35  37
ENDBRANCH  34  35
BRANCH  34  49
HETATM   49  O   UNK N   1      21.293  17.470   3.577  0.00  0.00    -0.388 OA
HETATM   50  C   UNK N   1      22.185  18.527   3.800  0.00  0.00     0.202 C 
ENDBRANCH  34  49
ENDBRANCH  31  34
ENDBRANCH  26  27
ENDBRANCH   1  26
BRANCH   1  51
HETATM   51  O   UNK N   1      26.346  15.772   3.978  0.00  0.00    -0.388 OA
HETATM   52  C   UNK N   1      26.508  15.772   2.590  0.00  0.00     0.202 C 
ENDBRANCH   1  51
TORSDOF 20
ENDMDL
MODEL 2
REMARK VINA RESULT:      -7.0      2.807     10.066
REMARK  20 active torsions:
REMARK  status: ('A' for Active; 'I' for Inactive)
REMARK    1  A    between atoms: C_2  and  C_3 
REMARK    2  A    between atoms: C_3  and  C_5 
REMARK    3  A    between atoms: C_5  and  C_6 
REMARK    4  A    between atoms: C_5  and  N_33 
REMARK    5  A    between atoms: C_6  and  C_7 
REMARK    6  A    between atoms: C_6  and  O_31 
REMARK    7  A    between atoms: C_7  and  C_8 
REMARK       I    between atoms: C_8  and  N_10 
REMARK    8  A    between atoms: C_14  and  C_15 
REMARK    9  A    between atoms: C_15  and  C_16 
REMARK   10  A    between atoms: C_15  and  O_29 
REMARK   11  A    between atoms: C_16  and  C_18 
REMARK       I    between atoms: C_18  and  N_20 
REMARK   12  A    between atoms: N_20  and  C_21 
REMARK   13  A    between atoms: C_21  and  C_22 
REMARK   14  A    between atoms: C_22  and  C_23 
REMARK       I    between atoms: N_33  and  C_35 
REMARK   15  A    between atoms: C_35  and  C_37 
REMARK   16  A    between atoms: C_37  and  C_38 
REMARK   17  A    between atoms: C_37  and  N_41 
REMARK       I    between atoms: N_41  and  C_42 
REMARK   18  A    between atoms: C_42  and  C_44 
REMARK   19  A    between atoms: C_44  and  C_45 
REMARK   20  A    between atoms: C_44  and  N_48 
ROOT
HETATM    1  C   UNK N   1      29.637  16.639   4.852  0.00  0.00     0.152 C 
ENDROOT
BRANCH   1   2
HETATM    2  C   UNK N   1      28.279  17.342   5.128  0.00  0.00     0.119 C 
BRANCH   2   3
HETATM    3  C   UNK N   1      28.273  18.877   5.249  0.00  0.00     0.006 C 
HETATM    4  C   UNK N   1      27.675  19.555   4.027  0.00  0.00     0.012 C 
BRANCH   3   5
HETATM    5  C   UNK N   1      27.802  19.468   6.582  0.00  0.00     0.002 C 
HETATM    6  C   UNK N   1      27.324  20.909   6.472  0.00  0.00     0.005 C 
ENDBRANCH   3   5
ENDBRANCH   2   3
BRANCH   2   7
HETATM    7  N   UNK N   1      27.005  16.614   4.913  0.00  0.00    -0.347 N 
HETATM    8  C   UNK N   1      26.536  16.441   3.563  0.00  0.00     0.153 C 
HETATM    9  C   UNK N   1      26.364  15.940   5.932  0.00  0.00     0.243 C 
HETATM   10  O   UNK N   1      26.702  16.085   7.089  0.00  0.00    -0.271 OA
BRANCH   9  11
HETATM   11  C   UNK N   1      25.287  14.902   5.667  0.00  0.00     0.180 C 
BRANCH  11  12
HETATM   12  C   UNK N   1      25.641  13.400   5.671  0.00  0.00     0.009 C 
HETATM   13  C   UNK N   1      27.028  13.048   5.162  0.00  0.00     0.012 C 
HETATM   14  C   UNK N   1      24.583  12.541   5.005  0.00  0.00     0.012 C 
ENDBRANCH  11  12
BRANCH  11  15
HETATM   15  N   UNK N   1      24.143  15.194   6.500  0.00  0.00    -0.346 N 
HETATM   16  C   UNK N   1      23.108  15.959   6.082  0.00  0.00     0.252 C 
HETATM   17  O   UNK N   1      22.196  16.200   6.857  0.00  0.00    -0.271 OA
HETATM   18  H   UNK N   1      24.115  14.821   7.410  0.00  0.00     0.163 HD
BRANCH  16  19
HETATM   19  C   UNK N   1      23.068  16.520   4.670  0.00  0.00     0.316 C 
BRANCH  19  20
HETATM   20  C   UNK N   1      22.216  15.623   3.746  0.00  0.00     0.020 C 
HETATM   21  C   UNK N   1      21.478  14.521   4.494  0.00  0.00     0.012 C 
HETATM   22  C   UNK N   1      23.054  15.027   2.628  0.00  0.00     0.012 C 
ENDBRANCH  19  20
BRANCH  19  23
HETATM   23  N   UNK N   1      22.607  17.921   4.664  0.00  0.00     0.094 N 
HETATM   24  C   UNK N   1      23.707  18.781   4.254  0.00  0.00     0.310 C 
HETATM   25  C   UNK N   1      21.576  18.106   3.651  0.00  0.00     0.310 C 
ENDBRANCH  19  23
ENDBRANCH  16  19
ENDBRANCH  11  15
ENDBRANCH   9  11
ENDBRANCH   2   7
ENDBRANCH   1   2
BRANCH   1  26
HETATM   26  C   UNK N   1      30.200  15.837   6.032  0.00  0.00     0.137 C 
BRANCH  26  27
HETATM   27  C   UNK N   1      30.642  16.705   7.181  0.00  0.00     0.222 C 
HETATM   28  O   UNK N   1      29.809  17.042   8.008  0.00  0.00    -0.273 OA
HETATM   29  N   UNK N   1      31.936  17.112   7.313  0.00  0.00    -0.345 N 
HETATM   30  C   UNK N   1      32.354  18.000   8.356  0.00  0.00     0.126 C 
HETATM   31  C   UNK N   1      32.986  16.645   6.455  0.00  0.00     0.117 C 
HETATM   32  C   UNK N   1      33.846  18.192   8.141  0.00  0.00     0.022 C 
HETATM   33  C   UNK N   1      34.225  17.416   6.878  0.00  0.00     0.029 C 
BRANCH  31  34
HETATM   34  C   UNK N   1      33.113  15.133   6.659  0.00  0.00     0.156 C 
BRANCH  34  35
HETATM   35  C   UNK N   1      33.895  14.653   7.881  0.00  0.00     0.105 C 
HETATM   36  C   UNK N   1      34.968  13.596   7.652  0.00  0.00     0.022 C 
BRANCH  35  37
HETATM   37  C   UNK N   1      32.971  14.438   9.041  0.00  0.00     0.224 C 
HETATM   38  O   UNK N   1      31.936  13.824   8.848  0.00  0.00    -0.273 OA
HETATM   39  N   UNK N   1      33.267  14.841  10.298  0.00  0.00    -0.360 N 
HETATM   40  H   UNK N   1      32.671  14.549  11.024  0.00  0.00     0.162 HD
BRANCH  39  41
HETATM   41  C   UNK N   1      34.396  15.668  10.649  0.00  0.00     0.127 C 
BRANCH  41  42
HETATM   42  C   UNK N   1      35.212  14.983  11.754  0.00  0.00     0.058 C 
BRANCH  42  43
HETATM   43  C   UNK N   1      36.395  14.244  11.203  0.00  0.00    -0.057 A 
HETATM   44  C   UNK N   1      36.796  13.042  11.789  0.00  0.00     0.007 A 
HETATM   45  C   UNK N   1      37.938  12.385  11.320  0.00  0.00     0.001 A 
HETATM   46  C   UNK N   1      38.683  12.932  10.270  0.00  0.00     0.000 A 
HETATM   47  C   UNK N   1      38.275  14.126   9.671  0.00  0.00     0.001 A 
HETATM   48  C   UNK N   1      37.132  14.777  10.133  0.00  0.00     0.007 A 
ENDBRANCH  42  43
ENDBRANCH  41  42
ENDBRANCH  39  41
ENDBRANCH  35  37
ENDBRANCH  34  35
BRANCH  34  49
HETATM   49  O   UNK N   1      33.281  14.378   5.499  0.00  0.00    -0.388 OA
HETATM   50  C   UNK N   1      32.216  13.467   5.544  0.00  0.00     0.202 C 
ENDBRANCH  34  49
ENDBRANCH  31  34
ENDBRANCH  26  27
ENDBRANCH   1  26
BRANCH   1  51
HETATM   51  O   UNK N   1      30.600  17.471   4.266  0.00  0.00    -0.388 OA
HETATM   52  C   UNK N   1      31.257  16.689   3.312  0.00  0.00     0.202 C 
ENDBRANCH   1  51
TORSDOF 20
ENDMDL
MODEL 3
REMARK VINA RESULT:      -6.7      1.431      2.567
REMARK  20 active torsions:
REMARK  status: ('A' for Active; 'I' for Inactive)
REMARK    1  A    between atoms: C_2  and  C_3 
REMARK    2  A    between atoms: C_3  and  C_5 
REMARK    3  A    between atoms: C_5  and  C_6 
REMARK    4  A    between atoms: C_5  and  N_33 
REMARK    5  A    between atoms: C_6  and  C_7 
REMARK    6  A    between atoms: C_6  and  O_31 
REMARK    7  A    between atoms: C_7  and  C_8 
REMARK       I    between atoms: C_8  and  N_10 
REMARK    8  A    between atoms: C_14  and  C_15 
REMARK    9  A    between atoms: C_15  and  C_16 
REMARK   10  A    between atoms: C_15  and  O_29 
REMARK   11  A    between atoms: C_16  and  C_18 
REMARK       I    between atoms: C_18  and  N_20 
REMARK   12  A    between atoms: N_20  and  C_21 
REMARK   13  A    between atoms: C_21  and  C_22 
REMARK   14  A    between atoms: C_22  and  C_23 
REMARK       I    between atoms: N_33  and  C_35 
REMARK   15  A    between atoms: C_35  and  C_37 
REMARK   16  A    between atoms: C_37  and  C_38 
REMARK   17  A    between atoms: C_37  and  N_41 
REMARK       I    between atoms: N_41  and  C_42 
REMARK   18  A    between atoms: C_42  and  C_44 
REMARK   19  A    between atoms: C_44  and  C_45 
REMARK   20  A    between atoms: C_44  and  N_48 
ROOT
HETATM    1  C   UNK N   1      25.658  17.055   4.619  0.00  0.00     0.152 C 
ENDROOT
BRANCH   1   2
HETATM    2  C   UNK N   1      26.484  15.918   3.955  0.00  0.00     0.119 C 
BRANCH   2   3
HETATM    3  C   UNK N   1      25.803  15.076   2.861  0.00  0.00     0.006 C 
HETATM    4  C   UNK N   1      25.935  15.699   1.481  0.00  0.00     0.012 C 
BRANCH   3   5
HETATM    5  C   UNK N   1      26.053  13.565   2.889  0.00  0.00     0.002 C 
HETATM    6  C   UNK N   1      24.927  12.751   2.266  0.00  0.00     0.005 C 
ENDBRANCH   3   5
ENDBRANCH   2   3
BRANCH   2   7
HETATM    7  N   UNK N   1      27.960  15.886   4.098  0.00  0.00    -0.347 N 
HETATM    8  C   UNK N   1      28.759  16.514   3.077  0.00  0.00     0.153 C 
HETATM    9  C   UNK N   1      28.577  15.454   5.253  0.00  0.00     0.243 C 
HETATM   10  O   UNK N   1      27.948  14.887   6.124  0.00  0.00    -0.271 OA
BRANCH   9  11
HETATM   11  C   UNK N   1      30.034  15.756   5.558  0.00  0.00     0.180 C 
BRANCH  11  12
HETATM   12  C   UNK N   1      30.408  16.985   6.411  0.00  0.00     0.009 C 
HETATM   13  C   UNK N   1      31.256  16.701   7.641  0.00  0.00     0.012 C 
HETATM   14  C   UNK N   1      29.212  17.848   6.764  0.00  0.00     0.012 C 
ENDBRANCH  11  12
BRANCH  11  15
HETATM   15  N   UNK N   1      30.671  14.549   6.034  0.00  0.00    -0.346 N 
HETATM   16  C   UNK N   1      31.492  13.800   5.262  0.00  0.00     0.252 C 
HETATM   17  O   UNK N   1      31.958  12.768   5.718  0.00  0.00    -0.271 OA
HETATM   18  H   UNK N   1      30.499  14.259   6.958  0.00  0.00     0.163 HD
BRANCH  16  19
HETATM   19  C   UNK N   1      31.837  14.224   3.843  0.00  0.00     0.316 C 
BRANCH  19  20
HETATM   20  C   UNK N   1      33.112  15.095   3.825  0.00  0.00     0.020 C 
HETATM   21  C   UNK N   1      33.856  15.097   5.153  0.00  0.00     0.012 C 
HETATM   22  C   UNK N   1      32.802  16.519   3.396  0.00  0.00     0.012 C 
ENDBRANCH  19  20
BRANCH  19  23
HETATM   23  N   UNK N   1      31.948  13.057   2.948  0.00  0.00     0.094 N 
HETATM   24  C   UNK N   1      30.743  12.964   2.138  0.00  0.00     0.310 C 
HETATM   25  C   UNK N   1      33.036  13.255   1.999  0.00  0.00     0.310 C 
ENDBRANCH  19  23
ENDBRANCH  16  19
ENDBRANCH  11  15
ENDBRANCH   9  11
ENDBRANCH   2   7
ENDBRANCH   1   2
BRANCH   1  26
HETATM   26  C   UNK N   1      24.182  16.719   4.867  0.00  0.00     0.137 C 
BRANCH  26  27
HETATM   27  C   UNK N   1      23.988  15.437   5.636  0.00  0.00     0.222 C 
HETATM   28  O   UNK N   1      24.617  15.280   6.671  0.00  0.00    -0.273 OA
HETATM   29  N   UNK N   1      23.134  14.467   5.204  0.00  0.00    -0.345 N 
HETATM   30  C   UNK N   1      22.997  13.213   5.883  0.00  0.00     0.126 C 
HETATM   31  C   UNK N   1      22.269  14.643   4.073  0.00  0.00     0.117 C 
HETATM   32  C   UNK N   1      21.961  12.439   5.085  0.00  0.00     0.022 C 
HETATM   33  C   UNK N   1      21.576  13.305   3.883  0.00  0.00     0.029 C 
BRANCH  31  34
HETATM   34  C   UNK N   1      21.303  15.785   4.402  0.00  0.00     0.156 C 
BRANCH  34  35
HETATM   35  C   UNK N   1      20.338  15.574   5.568  0.00  0.00     0.105 C 
HETATM   36  C   UNK N   1      18.849  15.703   5.274  0.00  0.00     0.022 C 
BRANCH  35  37
HETATM   37  C   UNK N   1      20.847  16.262   6.798  0.00  0.00     0.224 C 
HETATM   38  O   UNK N   1      21.156  17.439   6.715  0.00  0.00    -0.273 OA
HETATM   39  N   UNK N   1      20.915  15.653   8.004  0.00  0.00    -0.360 N 
HETATM   40  H   UNK N   1      21.137  16.209   8.785  0.00  0.00     0.162 HD
BRANCH  39  41
HETATM   41  C   UNK N   1      20.688  14.246   8.225  0.00  0.00     0.127 C 
BRANCH  41  42
HETATM   42  C   UNK N   1      20.725  13.949   9.730  0.00  0.00     0.058 C 
BRANCH  42  43
HETATM   43  C   UNK N   1      21.987  13.246  10.134  0.00  0.00    -0.057 A 
HETATM   44  C   UNK N   1      21.983  12.391  11.236  0.00  0.00     0.007 A 
HETATM   45  C   UNK N   1      23.173  11.787  11.655  0.00  0.00     0.001 A 
HETATM   46  C   UNK N   1      24.369  12.042  10.975  0.00  0.00     0.000 A 
HETATM   47  C   UNK N   1      24.373  12.884   9.861  0.00  0.00     0.001 A 
HETATM   48  C   UNK N   1      23.185  13.481   9.438  0.00  0.00     0.007 A 
ENDBRANCH  42  43
ENDBRANCH  41  42
ENDBRANCH  39  41
ENDBRANCH  35  37
ENDBRANCH  34  35
BRANCH  34  49
HETATM   49  O   UNK N   1      20.786  16.474   3.307  0.00  0.00    -0.388 OA
HETATM   50  C   UNK N   1      21.357  17.749   3.421  0.00  0.00     0.202 C 
ENDBRANCH  34  49
ENDBRANCH  31  34
ENDBRANCH  26  27
ENDBRANCH   1  26
BRANCH   1  51
HETATM   51  O   UNK N   1      25.825  18.307   4.015  0.00  0.00    -0.388 OA
HETATM   52  C   UNK N   1      24.685  19.048   4.340  0.00  0.00     0.202 C 
ENDBRANCH   1  51
TORSDOF 20
ENDMDL
MODEL 4
REMARK VINA RESULT:      -6.6      7.058     12.512
REMARK  20 active torsions:
REMARK  status: ('A' for Active; 'I' for Inactive)
REMARK    1  A    between atoms: C_2  and  C_3 
REMARK    2  A    between atoms: C_3  and  C_5 
REMARK    3  A    between atoms: C_5  and  C_6 
REMARK    4  A    between atoms: C_5  and  N_33 
REMARK    5  A    between atoms: C_6  and  C_7 
REMARK    6  A    between atoms: C_6  and  O_31 
REMARK    7  A    between atoms: C_7  and  C_8 
REMARK       I    between atoms: C_8  and  N_10 
REMARK    8  A    between atoms: C_14  and  C_15 
REMARK    9  A    between atoms: C_15  and  C_16 
REMARK   10  A    between atoms: C_15  and  O_29 
REMARK   11  A    between atoms: C_16  and  C_18 
REMARK       I    between atoms: C_18  and  N_20 
REMARK   12  A    between atoms: N_20  and  C_21 
REMARK   13  A    between atoms: C_21  and  C_22 
REMARK   14  A    between atoms: C_22  and  C_23 
REMARK       I    between atoms: N_33  and  C_35 
REMARK   15  A    between atoms: C_35  and  C_37 
REMARK   16  A    between atoms: C_37  and  C_38 
REMARK   17  A    between atoms: C_37  and  N_41 
REMARK       I    between atoms: N_41  and  C_42 
REMARK   18  A    between atoms: C_42  and  C_44 
REMARK   19  A    between atoms: C_44  and  C_45 
REMARK   20  A    between atoms: C_44  and  N_48 
ROOT
HETATM    1  C   UNK N   1      35.845  13.231   9.168  0.00  0.00     0.152 C 
ENDROOT
BRANCH   1   2
HETATM    2  C   UNK N   1      35.301  13.267   7.713  0.00  0.00     0.119 C 
BRANCH   2   3
HETATM    3  C   UNK N   1      35.572  12.048   6.812  0.00  0.00     0.006 C 
HETATM    4  C   UNK N   1      37.053  11.847   6.535  0.00  0.00     0.012 C 
BRANCH   3   5
HETATM    5  C   UNK N   1      34.819  10.756   7.143  0.00  0.00     0.002 C 
HETATM    6  C   UNK N   1      35.537   9.498   6.676  0.00  0.00     0.005 C 
ENDBRANCH   3   5
ENDBRANCH   2   3
BRANCH   2   7
HETATM    7  N   UNK N   1      34.259  14.250   7.329  0.00  0.00    -0.347 N 
HETATM    8  C   UNK N   1      32.905  14.013   7.758  0.00  0.00     0.153 C 
HETATM    9  C   UNK N   1      34.571  15.462   6.750  0.00  0.00     0.243 C 
HETATM   10  O   UNK N   1      35.692  15.691   6.341  0.00  0.00    -0.271 OA
BRANCH   9  11
HETATM   11  C   UNK N   1      33.583  16.614   6.694  0.00  0.00     0.180 C 
BRANCH  11  12
HETATM   12  C   UNK N   1      33.593  17.699   7.789  0.00  0.00     0.009 C 
HETATM   13  C   UNK N   1      34.549  17.460   8.946  0.00  0.00     0.012 C 
HETATM   14  C   UNK N   1      32.204  18.043   8.295  0.00  0.00     0.012 C 
ENDBRANCH  11  12
BRANCH  11  15
HETATM   15  N   UNK N   1      33.604  17.182   5.365  0.00  0.00    -0.346 N 
HETATM   16  C   UNK N   1      32.839  16.712   4.353  0.00  0.00     0.252 C 
HETATM   17  O   UNK N   1      32.945  17.214   3.245  0.00  0.00    -0.271 OA
HETATM   18  H   UNK N   1      34.202  17.944   5.188  0.00  0.00     0.163 HD
BRANCH  16  19
HETATM   19  C   UNK N   1      31.858  15.572   4.577  0.00  0.00     0.316 C 
BRANCH  19  20
HETATM   20  C   UNK N   1      30.401  16.075   4.485  0.00  0.00     0.020 C 
HETATM   21  C   UNK N   1      29.919  16.257   3.052  0.00  0.00     0.012 C 
HETATM   22  C   UNK N   1      30.210  17.362   5.268  0.00  0.00     0.012 C 
ENDBRANCH  19  20
BRANCH  19  23
HETATM   23  N   UNK N   1      32.119  14.453   3.653  0.00  0.00     0.094 N 
HETATM   24  C   UNK N   1      33.547  14.172   3.639  0.00  0.00     0.310 C 
HETATM   25  C   UNK N   1      31.492  13.235   4.151  0.00  0.00     0.310 C 
ENDBRANCH  19  23
ENDBRANCH  16  19
ENDBRANCH  11  15
ENDBRANCH   9  11
ENDBRANCH   2   7
ENDBRANCH   1   2
BRANCH   1  26
HETATM   26  C   UNK N   1      34.849  12.724  10.217  0.00  0.00     0.137 C 
BRANCH  26  27
HETATM   27  C   UNK N   1      35.164  13.198  11.612  0.00  0.00     0.222 C 
HETATM   28  O   UNK N   1      34.551  14.158  12.051  0.00  0.00    -0.273 OA
HETATM   29  N   UNK N   1      36.106  12.583  12.380  0.00  0.00    -0.345 N 
HETATM   30  C   UNK N   1      36.472  13.070  13.677  0.00  0.00     0.126 C 
HETATM   31  C   UNK N   1      36.767  11.375  11.977  0.00  0.00     0.117 C 
HETATM   32  C   UNK N   1      37.536  12.109  14.179  0.00  0.00     0.022 C 
HETATM   33  C   UNK N   1      37.795  11.096  13.061  0.00  0.00     0.029 C 
BRANCH  31  34
HETATM   34  C   UNK N   1      35.700  10.282  11.858  0.00  0.00     0.156 C 
BRANCH  34  35
HETATM   35  C   UNK N   1      35.465   9.394  13.079  0.00  0.00     0.105 C 
HETATM   36  C   UNK N   1      35.422   7.889  12.850  0.00  0.00     0.022 C 
BRANCH  35  37
HETATM   37  C   UNK N   1      34.393   9.976  13.949  0.00  0.00     0.224 C 
HETATM   38  O   UNK N   1      33.392  10.420  13.413  0.00  0.00    -0.273 OA
HETATM   39  N   UNK N   1      34.463   9.973  15.300  0.00  0.00    -0.360 N 
HETATM   40  H   UNK N   1      33.664  10.255  15.800  0.00  0.00     0.162 HD
BRANCH  39  41
HETATM   41  C   UNK N   1      35.626   9.585  16.059  0.00  0.00     0.127 C 
BRANCH  41  42
HETATM   42  C   UNK N   1      35.326   9.706  17.560  0.00  0.00     0.058 C 
BRANCH  42  43
HETATM   43  C   UNK N   1      35.242  11.136  18.002  0.00  0.00    -0.057 A 
HETATM   44  C   UNK N   1      35.235  12.157  17.051  0.00  0.00     0.007 A 
HETATM   45  C   UNK N   1      35.225  13.494  17.463  0.00  0.00     0.001 A 
HETATM   46  C   UNK N   1      35.228  13.810  18.826  0.00  0.00     0.000 A 
HETATM   47  C   UNK N   1      35.219  12.791  19.780  0.00  0.00     0.001 A 
HETATM   48  C   UNK N   1      35.220  11.458  19.370  0.00  0.00     0.007 A 
ENDBRANCH  42  43
ENDBRANCH  41  42
ENDBRANCH  39  41
ENDBRANCH  35  37
ENDBRANCH  34  35
BRANCH  34  49
HETATM   49  O   UNK N   1      35.626   9.642  10.622  0.00  0.00    -0.388 OA
HETATM   50  C   UNK N   1      36.934   9.732  10.126  0.00  0.00     0.202 C 
ENDBRANCH  34  49
ENDBRANCH  31  34
ENDBRANCH  26  27
ENDBRANCH   1  26
BRANCH   1  51
HETATM   51  O   UNK N   1      36.483  14.413   9.566  0.00  0.00    -0.388 OA
HETATM   52  C   UNK N   1      37.854  14.169   9.456  0.00  0.00     0.202 C 
ENDBRANCH   1  51
TORSDOF 20
ENDMDL
MODEL 5
REMARK VINA RESULT:      -6.6      4.991     11.051
REMARK  20 active torsions:
REMARK  status: ('A' for Active; 'I' for Inactive)
REMARK    1  A    between atoms: C_2  and  C_3 
REMARK    2  A    between atoms: C_3  and  C_5 
REMARK    3  A    between atoms: C_5  and  C_6 
REMARK    4  A    between atoms: C_5  and  N_33 
REMARK    5  A    between atoms: C_6  and  C_7 
REMARK    6  A    between atoms: C_6  and  O_31 
REMARK    7  A    between atoms: C_7  and  C_8 
REMARK       I    between atoms: C_8  and  N_10 
REMARK    8  A    between atoms: C_14  and  C_15 
REMARK    9  A    between atoms: C_15  and  C_16 
REMARK   10  A    between atoms: C_15  and  O_29 
REMARK   11  A    between atoms: C_16  and  C_18 
REMARK       I    between atoms: C_18  and  N_20 
REMARK   12  A    between atoms: N_20  and  C_21 
REMARK   13  A    between atoms: C_21  and  C_22 
REMARK   14  A    between atoms: C_22  and  C_23 
REMARK       I    between atoms: N_33  and  C_35 
REMARK   15  A    between atoms: C_35  and  C_37 
REMARK   16  A    between atoms: C_37  and  C_38 
REMARK   17  A    between atoms: C_37  and  N_41 
REMARK       I    between atoms: N_41  and  C_42 
REMARK   18  A    between atoms: C_42  and  C_44 
REMARK   19  A    between atoms: C_44  and  C_45 
REMARK   20  A    between atoms: C_44  and  N_48 
ROOT
HETATM    1  C   UNK N   1      33.626  15.720   7.071  0.00  0.00     0.152 C 
ENDROOT
BRANCH   1   2
HETATM    2  C   UNK N   1      33.036  15.641   5.636  0.00  0.00     0.119 C 
BRANCH   2   3
HETATM    3  C   UNK N   1      33.778  14.780   4.598  0.00  0.00     0.006 C 
HETATM    4  C   UNK N   1      33.436  15.168   3.168  0.00  0.00     0.012 C 
BRANCH   3   5
HETATM    5  C   UNK N   1      35.272  14.535   4.835  0.00  0.00     0.002 C 
HETATM    6  C   UNK N   1      35.845  13.408   3.989  0.00  0.00     0.005 C 
ENDBRANCH   3   5
ENDBRANCH   2   3
BRANCH   2   7
HETATM    7  N   UNK N   1      31.638  16.064   5.379  0.00  0.00    -0.347 N 
HETATM    8  C   UNK N   1      31.409  17.386   4.857  0.00  0.00     0.153 C 
HETATM    9  C   UNK N   1      30.581  15.180   5.440  0.00  0.00     0.243 C 
HETATM   10  O   UNK N   1      30.721  14.068   5.907  0.00  0.00    -0.271 OA
BRANCH   9  11
HETATM   11  C   UNK N   1      29.225  15.492   4.830  0.00  0.00     0.180 C 
BRANCH  11  12
HETATM   12  C   UNK N   1      28.853  14.936   3.440  0.00  0.00     0.009 C 
HETATM   13  C   UNK N   1      29.153  15.849   2.263  0.00  0.00     0.012 C 
HETATM   14  C   UNK N   1      27.431  14.412   3.373  0.00  0.00     0.012 C 
ENDBRANCH  11  12
BRANCH  11  15
HETATM   15  N   UNK N   1      28.200  15.229   5.813  0.00  0.00    -0.346 N 
HETATM   16  C   UNK N   1      27.560  16.213   6.488  0.00  0.00     0.252 C 
HETATM   17  O   UNK N   1      26.737  15.912   7.338  0.00  0.00    -0.271 OA
HETATM   18  H   UNK N   1      27.956  14.294   6.001  0.00  0.00     0.163 HD
BRANCH  16  19
HETATM   19  C   UNK N   1      27.855  17.677   6.205  0.00  0.00     0.316 C 
BRANCH  19  20
HETATM   20  C   UNK N   1      26.807  18.271   5.239  0.00  0.00     0.020 C 
HETATM   21  C   UNK N   1      25.640  17.332   4.969  0.00  0.00     0.012 C 
HETATM   22  C   UNK N   1      27.444  18.704   3.930  0.00  0.00     0.012 C 
ENDBRANCH  19  20
BRANCH  19  23
HETATM   23  N   UNK N   1      27.962  18.452   7.455  0.00  0.00     0.094 N 
HETATM   24  C   UNK N   1      29.312  18.320   7.981  0.00  0.00     0.310 C 
HETATM   25  C   UNK N   1      27.794  19.873   7.179  0.00  0.00     0.310 C 
ENDBRANCH  19  23
ENDBRANCH  16  19
ENDBRANCH  11  15
ENDBRANCH   9  11
ENDBRANCH   2   7
ENDBRANCH   1   2
BRANCH   1  26
HETATM   26  C   UNK N   1      33.520  14.424   7.885  0.00  0.00     0.137 C 
BRANCH  26  27
HETATM   27  C   UNK N   1      33.478  14.660   9.372  0.00  0.00     0.222 C 
HETATM   28  O   UNK N   1      32.412  14.969   9.881  0.00  0.00    -0.273 OA
HETATM   29  N   UNK N   1      34.591  14.533  10.147  0.00  0.00    -0.345 N 
HETATM   30  C   UNK N   1      34.584  14.830  11.549  0.00  0.00     0.126 C 
HETATM   31  C   UNK N   1      35.840  14.046   9.637  0.00  0.00     0.117 C 
HETATM   32  C   UNK N   1      36.002  14.560  12.021  0.00  0.00     0.022 C 
HETATM   33  C   UNK N   1      36.821  14.162  10.791  0.00  0.00     0.029 C 
BRANCH  31  34
HETATM   34  C   UNK N   1      35.618  12.604   9.172  0.00  0.00     0.156 C 
BRANCH  34  35
HETATM   35  C   UNK N   1      35.665  11.508  10.237  0.00  0.00     0.105 C 
HETATM   36  C   UNK N   1      36.749  10.447  10.101  0.00  0.00     0.022 C 
BRANCH  35  37
HETATM   37  C   UNK N   1      34.281  11.024  10.548  0.00  0.00     0.224 C 
HETATM   38  O   UNK N   1      33.570  10.672   9.622  0.00  0.00    -0.273 OA
HETATM   39  N   UNK N   1      33.814  10.903  11.812  0.00  0.00    -0.360 N 
HETATM   40  H   UNK N   1      32.945  10.458  11.938  0.00  0.00     0.162 HD
BRANCH  39  41
HETATM   41  C   UNK N   1      34.498  11.381  12.988  0.00  0.00     0.127 C 
BRANCH  41  42
HETATM   42  C   UNK N   1      34.282  10.398  14.146  0.00  0.00     0.058 C 
BRANCH  42  43
HETATM   43  C   UNK N   1      34.558  11.028  15.479  0.00  0.00    -0.057 A 
HETATM   44  C   UNK N   1      34.592  12.418  15.594  0.00  0.00     0.007 A 
HETATM   45  C   UNK N   1      34.916  13.008  16.821  0.00  0.00     0.001 A 
HETATM   46  C   UNK N   1      35.212  12.209  17.930  0.00  0.00     0.000 A 
HETATM   47  C   UNK N   1      35.163  10.817  17.821  0.00  0.00     0.001 A 
HETATM   48  C   UNK N   1      34.832  10.228  16.601  0.00  0.00     0.007 A 
ENDBRANCH  42  43
ENDBRANCH  41  42
ENDBRANCH  39  41
ENDBRANCH  35  37
ENDBRANCH  34  35
BRANCH  34  49
HETATM   49  O   UNK N   1      36.179  12.272   7.940  0.00  0.00    -0.388 OA
HETATM   50  C   UNK N   1      37.110  13.295   7.716  0.00  0.00     0.202 C 
ENDBRANCH  34  49
ENDBRANCH  31  34
ENDBRANCH  26  27
ENDBRANCH   1  26
BRANCH   1  51
HETATM   51  O   UNK N   1      33.208  16.841   7.799  0.00  0.00    -0.388 OA
HETATM   52  C   UNK N   1      34.135  17.850   7.524  0.00  0.00     0.202 C 
ENDBRANCH   1  51
TORSDOF 20
ENDMDL
MODEL 6
REMARK VINA RESULT:      -6.5      2.559      9.859
REMARK  20 active torsions:
REMARK  status: ('A' for Active; 'I' for Inactive)
REMARK    1  A    between atoms: C_2  and  C_3 
REMARK    2  A    between atoms: C_3  and  C_5 
REMARK    3  A    between atoms: C_5  and  C_6 
REMARK    4  A    between atoms: C_5  and  N_33 
REMARK    5  A    between atoms: C_6  and  C_7 
REMARK    6  A    between atoms: C_6  and  O_31 
REMARK    7  A    between atoms: C_7  and  C_8 
REMARK       I    between atoms: C_8  and  N_10 
REMARK    8  A    between atoms: C_14  and  C_15 
REMARK    9  A    between atoms: C_15  and  C_16 
REMARK   10  A    between atoms: C_15  and  O_29 
REMARK   11  A    between atoms: C_16  and  C_18 
REMARK       I    between atoms: C_18  and  N_20 
REMARK   12  A    between atoms: N_20  and  C_21 
REMARK   13  A    between atoms: C_21  and  C_22 
REMARK   14  A    between atoms: C_22  and  C_23 
REMARK       I    between atoms: N_33  and  C_35 
REMARK   15  A    between atoms: C_35  and  C_37 
REMARK   16  A    between atoms: C_37  and  C_38 
REMARK   17  A    between atoms: C_37  and  N_41 
REMARK       I    between atoms: N_41  and  C_42 
REMARK   18  A    between atoms: C_42  and  C_44 
REMARK   19  A    between atoms: C_44  and  C_45 
REMARK   20  A    between atoms: C_44  and  N_48 
ROOT
HETATM    1  C   UNK N   1      28.453  16.564   5.149  0.00  0.00     0.152 C 
ENDROOT
BRANCH   1   2
HETATM    2  C   UNK N   1      27.262  17.561   5.158  0.00  0.00     0.119 C 
BRANCH   2   3
HETATM    3  C   UNK N   1      27.581  19.067   5.191  0.00  0.00     0.006 C 
HETATM    4  C   UNK N   1      27.482  19.713   3.819  0.00  0.00     0.012 C 
BRANCH   3   5
HETATM    5  C   UNK N   1      26.942  19.890   6.314  0.00  0.00     0.002 C 
HETATM    6  C   UNK N   1      27.188  21.386   6.187  0.00  0.00     0.005 C 
ENDBRANCH   3   5
ENDBRANCH   2   3
BRANCH   2   7
HETATM    7  N   UNK N   1      25.903  17.104   4.778  0.00  0.00    -0.347 N 
HETATM    8  C   UNK N   1      25.404  17.455   3.474  0.00  0.00     0.153 C 
HETATM    9  C   UNK N   1      25.190  16.205   5.543  0.00  0.00     0.243 C 
HETATM   10  O   UNK N   1      25.554  15.908   6.663  0.00  0.00    -0.271 OA
BRANCH   9  11
HETATM   11  C   UNK N   1      23.987  15.451   5.001  0.00  0.00     0.180 C 
BRANCH  11  12
HETATM   12  C   UNK N   1      24.118  13.967   4.603  0.00  0.00     0.009 C 
HETATM   13  C   UNK N   1      24.046  13.675   3.114  0.00  0.00     0.012 C 
HETATM   14  C   UNK N   1      23.181  13.061   5.380  0.00  0.00     0.012 C 
ENDBRANCH  11  12
BRANCH  11  15
HETATM   15  N   UNK N   1      22.860  15.683   5.874  0.00  0.00    -0.346 N 
HETATM   16  C   UNK N   1      21.772  16.394   5.495  0.00  0.00     0.252 C 
HETATM   17  O   UNK N   1      20.877  16.587   6.303  0.00  0.00    -0.271 OA
HETATM   18  H   UNK N   1      22.883  15.309   6.784  0.00  0.00     0.163 HD
BRANCH  16  19
HETATM   19  C   UNK N   1      21.653  16.952   4.086  0.00  0.00     0.316 C 
BRANCH  19  20
HETATM   20  C   UNK N   1      20.754  16.051   3.212  0.00  0.00     0.020 C 
HETATM   21  C   UNK N   1      20.267  14.805   3.938  0.00  0.00     0.012 C 
HETATM   22  C   UNK N   1      21.449  15.665   1.918  0.00  0.00     0.012 C 
ENDBRANCH  19  20
BRANCH  19  23
HETATM   23  N   UNK N   1      21.188  18.352   4.103  0.00  0.00     0.094 N 
HETATM   24  C   UNK N   1      22.208  19.198   3.500  0.00  0.00     0.310 C 
HETATM   25  C   UNK N   1      20.013  18.500   3.254  0.00  0.00     0.310 C 
ENDBRANCH  19  23
ENDBRANCH  16  19
ENDBRANCH  11  15
ENDBRANCH   9  11
ENDBRANCH   2   7
ENDBRANCH   1   2
BRANCH   1  26
HETATM   26  C   UNK N   1      29.834  17.209   5.325  0.00  0.00     0.137 C 
BRANCH  26  27
HETATM   27  C   UNK N   1      30.318  17.192   6.752  0.00  0.00     0.222 C 
HETATM   28  O   UNK N   1      29.496  17.039   7.641  0.00  0.00    -0.273 OA
HETATM   29  N   UNK N   1      31.637  17.340   7.061  0.00  0.00    -0.345 N 
HETATM   30  C   UNK N   1      32.101  17.404   8.414  0.00  0.00     0.126 C 
HETATM   31  C   UNK N   1      32.666  17.391   6.063  0.00  0.00     0.117 C 
HETATM   32  C   UNK N   1      33.608  17.569   8.312  0.00  0.00     0.022 C 
HETATM   33  C   UNK N   1      33.953  17.663   6.823  0.00  0.00     0.029 C 
BRANCH  31  34
HETATM   34  C   UNK N   1      32.667  16.046   5.330  0.00  0.00     0.156 C 
BRANCH  34  35
HETATM   35  C   UNK N   1      33.397  14.883   6.000  0.00  0.00     0.105 C 
HETATM   36  C   UNK N   1      34.532  14.229   5.222  0.00  0.00     0.022 C 
BRANCH  35  37
HETATM   37  C   UNK N   1      32.417  13.965   6.665  0.00  0.00     0.224 C 
HETATM   38  O   UNK N   1      31.311  13.842   6.166  0.00  0.00    -0.273 OA
HETATM   39  N   UNK N   1      32.728  13.223   7.752  0.00  0.00    -0.360 N 
HETATM   40  H   UNK N   1      32.074  12.551   8.051  0.00  0.00     0.162 HD
BRANCH  39  41
HETATM   41  C   UNK N   1      33.951  13.349   8.507  0.00  0.00     0.127 C 
BRANCH  41  42
HETATM   42  C   UNK N   1      33.730  14.296   9.694  0.00  0.00     0.058 C 
BRANCH  42  43
HETATM   43  C   UNK N   1      34.661  13.999  10.832  0.00  0.00    -0.057 A 
HETATM   44  C   UNK N   1      35.118  15.039  11.643  0.00  0.00     0.007 A 
HETATM   45  C   UNK N   1      36.038  14.774  12.662  0.00  0.00     0.001 A 
HETATM   46  C   UNK N   1      36.506  13.472  12.868  0.00  0.00     0.000 A 
HETATM   47  C   UNK N   1      36.037  12.427  12.069  0.00  0.00     0.001 A 
HETATM   48  C   UNK N   1      35.113  12.688  11.057  0.00  0.00     0.007 A 
ENDBRANCH  42  43
ENDBRANCH  41  42
ENDBRANCH  39  41
ENDBRANCH  35  37
ENDBRANCH  34  35
BRANCH  34  49
HETATM   49  O   UNK N   1      32.782  16.113   3.943  0.00  0.00    -0.388 OA
HETATM   50  C   UNK N   1      32.696  17.486   3.672  0.00  0.00     0.202 C 
ENDBRANCH  34  49
ENDBRANCH  31  34
ENDBRANCH  26  27
ENDBRANCH   1  26
BRANCH   1  51
HETATM   51  O   UNK N   1      28.423  15.650   4.089  0.00  0.00    -0.388 OA
HETATM   52  C   UNK N   1      29.133  16.246   3.044  0.00  0.00     0.202 C 
ENDBRANCH   1  51
TORSDOF 20
ENDMDL
MODEL 7
REMARK VINA RESULT:      -6.5      5.438     10.684
REMARK  20 active torsions:
REMARK  status: ('A' for Active; 'I' for Inactive)
REMARK    1  A    between atoms: C_2  and  C_3 
REMARK    2  A    between atoms: C_3  and  C_5 
REMARK    3  A    between atoms: C_5  and  C_6 
REMARK    4  A    between atoms: C_5  and  N_33 
REMARK    5  A    between atoms: C_6  and  C_7 
REMARK    6  A    between atoms: C_6  and  O_31 
REMARK    7  A    between atoms: C_7  and  C_8 
REMARK       I    between atoms: C_8  and  N_10 
REMARK    8  A    between atoms: C_14  and  C_15 
REMARK    9  A    between atoms: C_15  and  C_16 
REMARK   10  A    between atoms: C_15  and  O_29 
REMARK   11  A    between atoms: C_16  and  C_18 
REMARK       I    between atoms: C_18  and  N_20 
REMARK   12  A    between atoms: N_20  and  C_21 
REMARK   13  A    between atoms: C_21  and  C_22 
REMARK   14  A    between atoms: C_22  and  C_23 
REMARK       I    between atoms: N_33  and  C_35 
REMARK   15  A    between atoms: C_35  and  C_37 
REMARK   16  A    between atoms: C_37  and  C_38 
REMARK   17  A    between atoms: C_37  and  N_41 
REMARK       I    between atoms: N_41  and  C_42 
REMARK   18  A    between atoms: C_42  and  C_44 
REMARK   19  A    between atoms: C_44  and  C_45 
REMARK   20  A    between atoms: C_44  and  N_48 
ROOT
HETATM    1  C   UNK N   1      35.159  15.137   8.875  0.00  0.00     0.152 C 
ENDROOT
BRANCH   1   2
HETATM    2  C   UNK N   1      35.803  13.726   8.782  0.00  0.00     0.119 C 
BRANCH   2   3
HETATM    3  C   UNK N   1      36.448  13.314   7.446  0.00  0.00     0.006 C 
HETATM    4  C   UNK N   1      37.886  13.790   7.324  0.00  0.00     0.012 C 
BRANCH   3   5
HETATM    5  C   UNK N   1      36.228  11.871   6.982  0.00  0.00     0.002 C 
HETATM    6  C   UNK N   1      36.213  11.715   5.468  0.00  0.00     0.005 C 
ENDBRANCH   3   5
ENDBRANCH   2   3
BRANCH   2   7
HETATM    7  N   UNK N   1      36.112  12.964  10.016  0.00  0.00    -0.347 N 
HETATM    8  C   UNK N   1      37.402  13.149  10.628  0.00  0.00     0.153 C 
HETATM    9  C   UNK N   1      35.151  12.242  10.694  0.00  0.00     0.243 C 
HETATM   10  O   UNK N   1      34.062  12.030  10.199  0.00  0.00    -0.271 OA
BRANCH   9  11
HETATM   11  C   UNK N   1      35.347  11.774  12.125  0.00  0.00     0.180 C 
BRANCH  11  12
HETATM   12  C   UNK N   1      34.808  12.618  13.298  0.00  0.00     0.009 C 
HETATM   13  C   UNK N   1      35.727  13.725  13.789  0.00  0.00     0.012 C 
HETATM   14  C   UNK N   1      34.307  11.774  14.454  0.00  0.00     0.012 C 
ENDBRANCH  11  12
BRANCH  11  15
HETATM   15  N   UNK N   1      34.944  10.389  12.222  0.00  0.00    -0.346 N 
HETATM   16  C   UNK N   1      35.831   9.372  12.329  0.00  0.00     0.252 C 
HETATM   17  O   UNK N   1      35.417   8.224  12.360  0.00  0.00    -0.271 OA
HETATM   18  H   UNK N   1      33.983  10.176  12.208  0.00  0.00     0.163 HD
BRANCH  16  19
HETATM   19  C   UNK N   1      37.325   9.641  12.409  0.00  0.00     0.316 C 
BRANCH  19  20
HETATM   20  C   UNK N   1      37.807   9.634  13.876  0.00  0.00     0.020 C 
HETATM   21  C   UNK N   1      36.790   9.038  14.839  0.00  0.00     0.012 C 
HETATM   22  C   UNK N   1      38.207  11.027  14.332  0.00  0.00     0.012 C 
ENDBRANCH  19  20
BRANCH  19  23
HETATM   23  N   UNK N   1      38.083   8.694  11.570  0.00  0.00     0.094 N 
HETATM   24  C   UNK N   1      38.625   9.406  10.422  0.00  0.00     0.310 C 
HETATM   25  C   UNK N   1      39.244   8.198  12.298  0.00  0.00     0.310 C 
ENDBRANCH  19  23
ENDBRANCH  16  19
ENDBRANCH  11  15
ENDBRANCH   9  11
ENDBRANCH   2   7
ENDBRANCH   1   2
BRANCH   1  26
HETATM   26  C   UNK N   1      34.724  15.737   7.532  0.00  0.00     0.137 C 
BRANCH  26  27
HETATM   27  C   UNK N   1      34.053  17.079   7.673  0.00  0.00     0.222 C 
HETATM   28  O   UNK N   1      34.693  18.081   7.396  0.00  0.00    -0.273 OA
HETATM   29  N   UNK N   1      32.761  17.191   8.094  0.00  0.00    -0.345 N 
HETATM   30  C   UNK N   1      32.135  18.461   8.306  0.00  0.00     0.126 C 
HETATM   31  C   UNK N   1      31.914  16.053   8.307  0.00  0.00     0.117 C 
HETATM   32  C   UNK N   1      30.723  18.138   8.764  0.00  0.00     0.022 C 
HETATM   33  C   UNK N   1      30.616  16.614   8.862  0.00  0.00     0.029 C 
BRANCH  31  34
HETATM   34  C   UNK N   1      31.742  15.346   6.960  0.00  0.00     0.156 C 
BRANCH  34  35
HETATM   35  C   UNK N   1      30.586  15.802   6.070  0.00  0.00     0.105 C 
HETATM   36  C   UNK N   1      29.695  14.721   5.472  0.00  0.00     0.022 C 
BRANCH  35  37
HETATM   37  C   UNK N   1      31.038  16.893   5.146  0.00  0.00     0.224 C 
HETATM   38  O   UNK N   1      32.184  16.861   4.732  0.00  0.00    -0.273 OA
HETATM   39  N   UNK N   1      30.212  17.870   4.707  0.00  0.00    -0.360 N 
HETATM   40  H   UNK N   1      30.548  18.471   4.004  0.00  0.00     0.162 HD
BRANCH  39  41
HETATM   41  C   UNK N   1      28.874  18.094   5.196  0.00  0.00     0.127 C 
BRANCH  41  42
HETATM   42  C   UNK N   1      28.438  19.528   4.867  0.00  0.00     0.058 C 
BRANCH  42  43
HETATM   43  C   UNK N   1      27.009  19.591   4.414  0.00  0.00    -0.057 A 
HETATM   44  C   UNK N   1      26.056  18.763   5.008  0.00  0.00     0.007 A 
HETATM   45  C   UNK N   1      24.738  18.772   4.542  0.00  0.00     0.001 A 
HETATM   46  C   UNK N   1      24.372  19.604   3.479  0.00  0.00     0.000 A 
HETATM   47  C   UNK N   1      25.320  20.446   2.893  0.00  0.00     0.001 A 
HETATM   48  C   UNK N   1      26.634  20.444   3.362  0.00  0.00     0.007 A 
ENDBRANCH  42  43
ENDBRANCH  41  42
ENDBRANCH  39  41
ENDBRANCH  35  37
ENDBRANCH  34  35
BRANCH  34  49
HETATM   49  O   UNK N   1      32.001  13.976   6.957  0.00  0.00    -0.388 OA
HETATM   50  C   UNK N   1      32.870  13.808   5.871  0.00  0.00     0.202 C 
ENDBRANCH  34  49
ENDBRANCH  31  34
ENDBRANCH  26  27
ENDBRANCH   1  26
BRANCH   1  51
HETATM   51  O   UNK N   1      35.887  16.045   9.654  0.00  0.00    -0.388 OA
HETATM   52  C   UNK N   1      35.198  16.156  10.864  0.00  0.00     0.202 C 
ENDBRANCH   1  51
TORSDOF 20
ENDMDL
MODEL 8
REMARK VINA RESULT:      -6.4      7.303     12.754
REMARK  20 active torsions:
REMARK  status: ('A' for Active; 'I' for Inactive)
REMARK    1  A    between atoms: C_2  and  C_3 
REMARK    2  A    between atoms: C_3  and  C_5 
REMARK    3  A    between atoms: C_5  and  C_6 
REMARK    4  A    between atoms: C_5  and  N_33 
REMARK    5  A    between atoms: C_6  and  C_7 
REMARK    6  A    between atoms: C_6  and  O_31 
REMARK    7  A    between atoms: C_7  and  C_8 
REMARK       I    between atoms: C_8  and  N_10 
REMARK    8  A    between atoms: C_14  and  C_15 
REMARK    9  A    between atoms: C_15  and  C_16 
REMARK   10  A    between atoms: C_15  and  O_29 
REMARK   11  A    between atoms: C_16  and  C_18 
REMARK       I    between atoms: C_18  and  N_20 
REMARK   12  A    between atoms: N_20  and  C_21 
REMARK   13  A    between atoms: C_21  and  C_22 
REMARK   14  A    between atoms: C_22  and  C_23 
REMARK       I    between atoms: N_33  and  C_35 
REMARK   15  A    between atoms: C_35  and  C_37 
REMARK   16  A    between atoms: C_37  and  C_38 
REMARK   17  A    between atoms: C_37  and  N_41 
REMARK       I    between atoms: N_41  and  C_42 
REMARK   18  A    between atoms: C_42  and  C_44 
REMARK   19  A    between atoms: C_44  and  C_45 
REMARK   20  A    between atoms: C_44  and  N_48 
ROOT
HETATM    1  C   UNK N   1      36.058  13.136   9.582  0.00  0.00     0.152 C 
ENDROOT
BRANCH   1   2
HETATM    2  C   UNK N   1      35.424  13.086   8.165  0.00  0.00     0.119 C 
BRANCH   2   3
HETATM    3  C   UNK N   1      35.651  11.820   7.318  0.00  0.00     0.006 C 
HETATM    4  C   UNK N   1      34.950  10.601   7.894  0.00  0.00     0.012 C 
BRANCH   3   5
HETATM    5  C   UNK N   1      35.504  11.962   5.799  0.00  0.00     0.002 C 
HETATM    6  C   UNK N   1      36.460  11.078   5.011  0.00  0.00     0.005 C 
ENDBRANCH   3   5
ENDBRANCH   2   3
BRANCH   2   7
HETATM    7  N   UNK N   1      34.351  14.039   7.792  0.00  0.00    -0.347 N 
HETATM    8  C   UNK N   1      33.022  13.803   8.295  0.00  0.00     0.153 C 
HETATM    9  C   UNK N   1      34.618  15.231   7.150  0.00  0.00     0.243 C 
HETATM   10  O   UNK N   1      35.714  15.456   6.679  0.00  0.00    -0.271 OA
BRANCH   9  11
HETATM   11  C   UNK N   1      33.611  16.367   7.095  0.00  0.00     0.180 C 
BRANCH  11  12
HETATM   12  C   UNK N   1      33.522  17.381   8.254  0.00  0.00     0.009 C 
HETATM   13  C   UNK N   1      32.154  18.003   8.481  0.00  0.00     0.012 C 
HETATM   14  C   UNK N   1      34.600  18.446   8.193  0.00  0.00     0.012 C 
ENDBRANCH  11  12
BRANCH  11  15
HETATM   15  N   UNK N   1      33.712  17.017   5.809  0.00  0.00    -0.346 N 
HETATM   16  C   UNK N   1      32.735  16.952   4.874  0.00  0.00     0.252 C 
HETATM   17  O   UNK N   1      32.911  17.489   3.792  0.00  0.00    -0.271 OA
HETATM   18  H   UNK N   1      34.527  17.530   5.603  0.00  0.00     0.163 HD
BRANCH  16  19
HETATM   19  C   UNK N   1      31.432  16.220   5.153  0.00  0.00     0.316 C 
BRANCH  19  20
HETATM   20  C   UNK N   1      30.222  17.156   4.947  0.00  0.00     0.020 C 
HETATM   21  C   UNK N   1      29.293  17.208   6.152  0.00  0.00     0.012 C 
HETATM   22  C   UNK N   1      29.440  16.784   3.699  0.00  0.00     0.012 C 
ENDBRANCH  19  20
BRANCH  19  23
HETATM   23  N   UNK N   1      31.327  14.990   4.345  0.00  0.00     0.094 N 
HETATM   24  C   UNK N   1      32.665  14.532   4.002  0.00  0.00     0.310 C 
HETATM   25  C   UNK N   1      30.745  13.917   5.141  0.00  0.00     0.310 C 
ENDBRANCH  19  23
ENDBRANCH  16  19
ENDBRANCH  11  15
ENDBRANCH   9  11
ENDBRANCH   2   7
ENDBRANCH   1   2
BRANCH   1  26
HETATM   26  C   UNK N   1      35.138  12.667  10.717  0.00  0.00     0.137 C 
BRANCH  26  27
HETATM   27  C   UNK N   1      35.195  13.559  11.930  0.00  0.00     0.222 C 
HETATM   28  O   UNK N   1      34.468  14.539  11.965  0.00  0.00    -0.273 OA
HETATM   29  N   UNK N   1      36.027  13.291  12.976  0.00  0.00    -0.345 N 
HETATM   30  C   UNK N   1      36.148  14.170  14.100  0.00  0.00     0.126 C 
HETATM   31  C   UNK N   1      36.806  12.089  13.058  0.00  0.00     0.117 C 
HETATM   32  C   UNK N   1      37.162  13.508  15.017  0.00  0.00     0.022 C 
HETATM   33  C   UNK N   1      37.654  12.243  14.310  0.00  0.00     0.029 C 
BRANCH  31  34
HETATM   34  C   UNK N   1      35.832  10.910  13.127  0.00  0.00     0.156 C 
BRANCH  34  35
HETATM   35  C   UNK N   1      35.489  10.362  14.512  0.00  0.00     0.105 C 
HETATM   36  C   UNK N   1      35.661   8.865  14.734  0.00  0.00     0.022 C 
BRANCH  35  37
HETATM   37  C   UNK N   1      34.220  10.979  15.017  0.00  0.00     0.224 C 
HETATM   38  O   UNK N   1      33.199  10.808  14.373  0.00  0.00    -0.273 OA
HETATM   39  N   UNK N   1      34.149  11.658  16.185  0.00  0.00    -0.360 N 
HETATM   40  H   UNK N   1      33.257  11.919  16.509  0.00  0.00     0.162 HD
BRANCH  39  41
HETATM   41  C   UNK N   1      35.289  12.028  16.988  0.00  0.00     0.127 C 
BRANCH  41  42
HETATM   42  C   UNK N   1      35.159  11.404  18.384  0.00  0.00     0.058 C 
BRANCH  42  43
HETATM   43  C   UNK N   1      35.471   9.937  18.376  0.00  0.00    -0.057 A 
HETATM   44  C   UNK N   1      36.787   9.509  18.199  0.00  0.00     0.007 A 
HETATM   45  C   UNK N   1      37.071   8.141  18.123  0.00  0.00     0.001 A 
HETATM   46  C   UNK N   1      36.039   7.202  18.219  0.00  0.00     0.000 A 
HETATM   47  C   UNK N   1      34.723   7.626  18.413  0.00  0.00     0.001 A 
HETATM   48  C   UNK N   1      34.440   8.990  18.496  0.00  0.00     0.007 A 
ENDBRANCH  42  43
ENDBRANCH  41  42
ENDBRANCH  39  41
ENDBRANCH  35  37
ENDBRANCH  34  35
BRANCH  34  49
HETATM   49  O   UNK N   1      35.961   9.959  12.116  0.00  0.00    -0.388 OA
HETATM   50  C   UNK N   1      37.310  10.051  11.749  0.00  0.00     0.202 C 
ENDBRANCH  34  49
ENDBRANCH  31  34
ENDBRANCH  26  27
ENDBRANCH   1  26
BRANCH   1  51
HETATM   51  O   UNK N   1      36.695  14.347   9.879  0.00  0.00    -0.388 OA
HETATM   52  C   UNK N   1      38.048  14.156   9.584  0.00  0.00     0.202 C 
ENDBRANCH   1  51
TORSDOF 20
ENDMDL
MODEL 9
REMARK VINA RESULT:      -6.4      2.086      4.671
REMARK  20 active torsions:
REMARK  status: ('A' for Active; 'I' for Inactive)
REMARK    1  A    between atoms: C_2  and  C_3 
REMARK    2  A    between atoms: C_3  and  C_5 
REMARK    3  A    between atoms: C_5  and  C_6 
REMARK    4  A    between atoms: C_5  and  N_33 
REMARK    5  A    between atoms: C_6  and  C_7 
REMARK    6  A    between atoms: C_6  and  O_31 
REMARK    7  A    between atoms: C_7  and  C_8 
REMARK       I    between atoms: C_8  and  N_10 
REMARK    8  A    between atoms: C_14  and  C_15 
REMARK    9  A    between atoms: C_15  and  C_16 
REMARK   10  A    between atoms: C_15  and  O_29 
REMARK   11  A    between atoms: C_16  and  C_18 
REMARK       I    between atoms: C_18  and  N_20 
REMARK   12  A    between atoms: N_20  and  C_21 
REMARK   13  A    between atoms: C_21  and  C_22 
REMARK   14  A    between atoms: C_22  and  C_23 
REMARK       I    between atoms: N_33  and  C_35 
REMARK   15  A    between atoms: C_35  and  C_37 
REMARK   16  A    between atoms: C_37  and  C_38 
REMARK   17  A    between atoms: C_37  and  N_41 
REMARK       I    between atoms: N_41  and  C_42 
REMARK   18  A    between atoms: C_42  and  C_44 
REMARK   19  A    between atoms: C_44  and  C_45 
REMARK   20  A    between atoms: C_44  and  N_48 
ROOT
HETATM    1  C   UNK N   1      26.390  16.194   4.392  0.00  0.00     0.152 C 
ENDROOT
BRANCH   1   2
HETATM    2  C   UNK N   1      27.386  17.361   4.641  0.00  0.00     0.119 C 
BRANCH   2   3
HETATM    3  C   UNK N   1      26.839  18.799   4.582  0.00  0.00     0.006 C 
HETATM    4  C   UNK N   1      27.944  19.843   4.594  0.00  0.00     0.012 C 
BRANCH   3   5
HETATM    5  C   UNK N   1      25.728  19.081   3.566  0.00  0.00     0.002 C 
HETATM    6  C   UNK N   1      25.799  20.475   2.959  0.00  0.00     0.005 C 
ENDBRANCH   3   5
ENDBRANCH   2   3
BRANCH   2   7
HETATM    7  N   UNK N   1      28.703  17.098   5.269  0.00  0.00    -0.347 N 
HETATM    8  C   UNK N   1      28.763  16.965   6.701  0.00  0.00     0.153 C 
HETATM    9  C   UNK N   1      29.823  16.789   4.524  0.00  0.00     0.243 C 
HETATM   10  O   UNK N   1      29.828  16.922   3.317  0.00  0.00    -0.271 OA
BRANCH   9  11
HETATM   11  C   UNK N   1      31.061  16.163   5.142  0.00  0.00     0.180 C 
BRANCH  11  12
HETATM   12  C   UNK N   1      31.500  14.743   4.729  0.00  0.00     0.009 C 
HETATM   13  C   UNK N   1      32.172  14.629   3.371  0.00  0.00     0.012 C 
HETATM   14  C   UNK N   1      30.393  13.715   4.876  0.00  0.00     0.012 C 
ENDBRANCH  11  12
BRANCH  11  15
HETATM   15  N   UNK N   1      32.149  17.111   5.068  0.00  0.00    -0.346 N 
HETATM   16  C   UNK N   1      33.157  17.143   5.971  0.00  0.00     0.252 C 
HETATM   17  O   UNK N   1      34.018  18.003   5.870  0.00  0.00    -0.271 OA
HETATM   18  H   UNK N   1      32.157  17.763   4.331  0.00  0.00     0.163 HD
BRANCH  16  19
HETATM   19  C   UNK N   1      33.229  16.130   7.102  0.00  0.00     0.316 C 
BRANCH  19  20
HETATM   20  C   UNK N   1      34.541  15.320   7.032  0.00  0.00     0.020 C 
HETATM   21  C   UNK N   1      35.038  15.104   5.609  0.00  0.00     0.012 C 
HETATM   22  C   UNK N   1      34.407  13.987   7.748  0.00  0.00     0.012 C 
ENDBRANCH  19  20
BRANCH  19  23
HETATM   23  N   UNK N   1      33.045  16.779   8.414  0.00  0.00     0.094 N 
HETATM   24  C   UNK N   1      34.247  17.531   8.743  0.00  0.00     0.310 C 
HETATM   25  C   UNK N   1      31.979  17.770   8.337  0.00  0.00     0.310 C 
ENDBRANCH  19  23
ENDBRANCH  16  19
ENDBRANCH  11  15
ENDBRANCH   9  11
ENDBRANCH   2   7
ENDBRANCH   1   2
BRANCH   1  26
HETATM   26  C   UNK N   1      25.185  16.161   5.340  0.00  0.00     0.137 C 
BRANCH  26  27
HETATM   27  C   UNK N   1      25.284  15.082   6.387  0.00  0.00     0.222 C 
HETATM   28  O   UNK N   1      25.897  15.325   7.414  0.00  0.00    -0.273 OA
HETATM   29  N   UNK N   1      24.708  13.860   6.210  0.00  0.00    -0.345 N 
HETATM   30  C   UNK N   1      24.860  12.800   7.161  0.00  0.00     0.126 C 
HETATM   31  C   UNK N   1      23.865  13.555   5.090  0.00  0.00     0.117 C 
HETATM   32  C   UNK N   1      24.072  11.634   6.588  0.00  0.00     0.022 C 
HETATM   33  C   UNK N   1      23.527  12.080   5.229  0.00  0.00     0.029 C 
BRANCH  31  34
HETATM   34  C   UNK N   1      22.639  14.468   5.171  0.00  0.00     0.156 C 
BRANCH  34  35
HETATM   35  C   UNK N   1      21.535  14.076   6.153  0.00  0.00     0.105 C 
HETATM   36  C   UNK N   1      20.135  13.877   5.587  0.00  0.00     0.022 C 
BRANCH  35  37
HETATM   37  C   UNK N   1      21.647  14.879   7.413  0.00  0.00     0.224 C 
HETATM   38  O   UNK N   1      22.093  14.333   8.408  0.00  0.00    -0.273 OA
HETATM   39  N   UNK N   1      21.335  16.193   7.475  0.00  0.00    -0.360 N 
HETATM   40  H   UNK N   1      21.557  16.679   8.301  0.00  0.00     0.162 HD
BRANCH  39  41
HETATM   41  C   UNK N   1      20.697  16.935   6.414  0.00  0.00     0.127 C 
BRANCH  41  42
HETATM   42  C   UNK N   1      21.689  17.948   5.825  0.00  0.00     0.058 C 
BRANCH  42  43
HETATM   43  C   UNK N   1      21.265  18.428   4.469  0.00  0.00    -0.057 A 
HETATM   44  C   UNK N   1      20.188  17.818   3.824  0.00  0.00     0.007 A 
HETATM   45  C   UNK N   1      19.833  18.218   2.532  0.00  0.00     0.001 A 
HETATM   46  C   UNK N   1      20.556  19.224   1.882  0.00  0.00     0.000 A 
HETATM   47  C   UNK N   1      21.624  19.847   2.532  0.00  0.00     0.001 A 
HETATM   48  C   UNK N   1      21.974  19.454   3.824  0.00  0.00     0.007 A 
ENDBRANCH  42  43
ENDBRANCH  41  42
ENDBRANCH  39  41
ENDBRANCH  35  37
ENDBRANCH  34  35
BRANCH  34  49
HETATM   49  O   UNK N   1      22.207  15.011   3.962  0.00  0.00    -0.388 OA
HETATM   50  C   UNK N   1      23.123  14.506   3.030  0.00  0.00     0.202 C 
ENDBRANCH  34  49
ENDBRANCH  31  34
ENDBRANCH  26  27
ENDBRANCH   1  26
BRANCH   1  51
HETATM   51  O   UNK N   1      27.002  14.941   4.265  0.00  0.00    -0.388 OA
HETATM   52  C   UNK N   1      26.965  14.628   2.903  0.00  0.00     0.202 C 
ENDBRANCH   1  51
TORSDOF 20
ENDMDL
