MODEL 1
REMARK VINA RESULT:      -8.1      0.000      0.000
REMARK  8 active torsions:
REMARK  status: ('A' for Active; 'I' for Inactive)
REMARK    1  A    between atoms: C_19  and  C_14 
REMARK    2  A    between atoms: C_26  and  C_14 
REMARK    3  A    between atoms: N_31  and  C_19 
REMARK    4  A    between atoms: C_26  and  C_23 
REMARK    5  A    between atoms: C_26  and  C_24 
REMARK    6  A    between atoms: C_27  and  C_25 
REMARK    7  A    between atoms: O_33  and  C_25 
REMARK    8  A    between atoms: N_32  and  C_27 
ROOT
HETATM    1  C   UNK N   1      34.100  17.938   7.657  0.00  0.00     0.079 C 
HETATM    2  C   UNK N   1      33.099  16.929   7.232  0.00  0.00     0.104 C 
HETATM    3  N   UNK N   1      34.872  18.740   7.977  0.00  0.00    -0.196 NA
ENDROOT
BRANCH   2   4
HETATM    4  C   UNK N   1      33.576  15.591   7.858  0.00  0.00     0.065 C 
BRANCH   4   5
HETATM    5  C   UNK N   1      33.890  15.598   9.356  0.00  0.00     0.275 C 
BRANCH   5   6
HETATM    6  N   UNK N   1      34.911  14.626   9.757  0.00  0.00     0.088 N 
HETATM    7  C   UNK N   1      36.111  15.320  10.276  0.00  0.00     0.275 C 
HETATM    8  C   UNK N   1      36.534  14.891  11.691  0.00  0.00     0.081 C 
HETATM    9  C   UNK N   1      36.602  13.361  11.762  0.00  0.00     0.226 C 
HETATM   10  C   UNK N   1      35.217  12.766  11.387  0.00  0.00     0.081 C 
HETATM   11  C   UNK N   1      34.255  13.787  10.766  0.00  0.00     0.275 C 
BRANCH   9  12
HETATM   12  C   UNK N   1      37.679  12.939  10.774  0.00  0.00     0.149 C 
HETATM   13  N   UNK N   1      37.433  12.090   9.845  0.00  0.00    -0.381 N 
HETATM   14  H   UNK N   1      37.230  11.146   9.653  0.00  0.00     0.158 HD
ATOM     15  HN  UNK N   1      37.456  12.588   8.956  1.00  0.00     0.158 HD
BRANCH  12  16
HETATM   16  O   UNK N   1      38.910  13.481  10.866  0.00  0.00    -0.348 OA
HETATM   17  H   UNK N   1      39.625  13.940  11.262  0.00  0.00     0.219 HD
ENDBRANCH  12  16
ENDBRANCH   9  12
BRANCH   9  18
HETATM   18  N   UNK N   1      37.002  12.931  13.122  0.00  0.00     0.106 N 
HETATM   19  C   UNK N   1      36.693  11.501  13.341  0.00  0.00     0.274 C 
HETATM   20  C   UNK N   1      36.825  11.123  14.810  0.00  0.00     0.030 C 
HETATM   21  C   UNK N   1      35.798  11.885  15.651  0.00  0.00     0.003 C 
HETATM   22  C   UNK N   1      35.355  13.208  15.011  0.00  0.00     0.030 C 
HETATM   23  C   UNK N   1      36.484  13.830  14.184  0.00  0.00     0.274 C 
ENDBRANCH   9  18
ENDBRANCH   5   6
ENDBRANCH   4   5
ENDBRANCH   2   4
BRANCH   2  24
HETATM   24  C   UNK N   1      31.656  17.369   7.617  0.00  0.00    -0.031 A 
HETATM   25  C   UNK N   1      31.418  18.313   8.628  0.00  0.00     0.009 A 
HETATM   26  C   UNK N   1      30.122  18.644   9.035  0.00  0.00     0.001 A 
HETATM   27  C   UNK N   1      29.027  18.056   8.406  0.00  0.00     0.000 A 
HETATM   28  C   UNK N   1      29.230  17.153   7.362  0.00  0.00     0.001 A 
HETATM   29  C   UNK N   1      30.528  16.810   6.977  0.00  0.00     0.009 A 
ENDBRANCH   2  24
BRANCH   2  30
HETATM   30  C   UNK N   1      33.138  16.709   5.721  0.00  0.00    -0.031 A 
HETATM   31  C   UNK N   1      33.498  15.432   5.242  0.00  0.00     0.009 A 
HETATM   32  C   UNK N   1      33.455  15.139   3.882  0.00  0.00     0.001 A 
HETATM   33  C   UNK N   1      33.055  16.118   2.974  0.00  0.00     0.000 A 
HETATM   34  C   UNK N   1      32.715  17.398   3.428  0.00  0.00     0.001 A 
HETATM   35  C   UNK N   1      32.753  17.694   4.796  0.00  0.00     0.009 A 
ENDBRANCH   2  30
TORSDOF 8
ENDMDL
MODEL 2
REMARK VINA RESULT:      -7.9      1.669      2.331
REMARK  8 active torsions:
REMARK  status: ('A' for Active; 'I' for Inactive)
REMARK    1  A    between atoms: C_19  and  C_14 
REMARK    2  A    between atoms: C_26  and  C_14 
REMARK    3  A    between atoms: N_31  and  C_19 
REMARK    4  A    between atoms: C_26  and  C_23 
REMARK    5  A    between atoms: C_26  and  C_24 
REMARK    6  A    between atoms: C_27  and  C_25 
REMARK    7  A    between atoms: O_33  and  C_25 
REMARK    8  A    between atoms: N_32  and  C_27 
ROOT
HETATM    1  C   UNK N   1      34.088  17.979   7.680  0.00  0.00     0.079 C 
HETATM    2  C   UNK N   1      33.106  16.904   7.398  0.00  0.00     0.104 C 
HETATM    3  N   UNK N   1      34.846  18.831   7.889  0.00  0.00    -0.196 NA
ENDROOT
BRANCH   2   4
HETATM    4  C   UNK N   1      33.633  15.659   8.159  0.00  0.00     0.065 C 
BRANCH   4   5
HETATM    5  C   UNK N   1      34.050  15.861   9.618  0.00  0.00     0.275 C 
BRANCH   5   6
HETATM    6  N   UNK N   1      35.092  14.939  10.075  0.00  0.00     0.088 N 
HETATM    7  C   UNK N   1      34.956  14.681  11.527  0.00  0.00     0.275 C 
HETATM    8  C   UNK N   1      34.835  13.195  11.902  0.00  0.00     0.081 C 
HETATM    9  C   UNK N   1      35.955  12.402  11.217  0.00  0.00     0.226 C 
HETATM   10  C   UNK N   1      35.859  12.601   9.679  0.00  0.00     0.081 C 
HETATM   11  C   UNK N   1      34.911  13.732   9.262  0.00  0.00     0.275 C 
BRANCH   9  12
HETATM   12  C   UNK N   1      37.261  12.949  11.773  0.00  0.00     0.149 C 
HETATM   13  N   UNK N   1      38.185  13.380  10.995  0.00  0.00    -0.381 N 
HETATM   14  H   UNK N   1      38.861  13.119  10.329  0.00  0.00     0.158 HD
ATOM     15  HN  UNK N   1      38.243  14.391  11.114  1.00  0.00     0.158 HD
BRANCH  12  16
HETATM   16  O   UNK N   1      37.443  12.997  13.108  0.00  0.00    -0.348 OA
HETATM   17  H   UNK N   1      37.665  12.680  13.962  0.00  0.00     0.219 HD
ENDBRANCH  12  16
ENDBRANCH   9  12
BRANCH   9  18
HETATM   18  N   UNK N   1      35.848  10.966  11.564  0.00  0.00     0.106 N 
HETATM   19  C   UNK N   1      35.954  10.118  10.356  0.00  0.00     0.274 C 
HETATM   20  C   UNK N   1      35.558   8.678  10.653  0.00  0.00     0.030 C 
HETATM   21  C   UNK N   1      34.085   8.604  11.064  0.00  0.00     0.003 C 
HETATM   22  C   UNK N   1      33.559   9.913  11.666  0.00  0.00     0.030 C 
HETATM   23  C   UNK N   1      34.666  10.665  12.411  0.00  0.00     0.274 C 
ENDBRANCH   9  18
ENDBRANCH   5   6
ENDBRANCH   4   5
ENDBRANCH   2   4
BRANCH   2  24
HETATM   24  C   UNK N   1      31.660  17.351   7.766  0.00  0.00    -0.031 A 
HETATM   25  C   UNK N   1      31.417  18.333   8.738  0.00  0.00     0.009 A 
HETATM   26  C   UNK N   1      30.120  18.672   9.133  0.00  0.00     0.001 A 
HETATM   27  C   UNK N   1      29.027  18.052   8.529  0.00  0.00     0.000 A 
HETATM   28  C   UNK N   1      29.236  17.109   7.522  0.00  0.00     0.001 A 
HETATM   29  C   UNK N   1      30.536  16.759   7.150  0.00  0.00     0.009 A 
ENDBRANCH   2  24
BRANCH   2  30
HETATM   30  C   UNK N   1      33.118  16.515   5.921  0.00  0.00    -0.031 A 
HETATM   31  C   UNK N   1      32.843  17.515   4.966  0.00  0.00     0.009 A 
HETATM   32  C   UNK N   1      32.937  17.249   3.602  0.00  0.00     0.001 A 
HETATM   33  C   UNK N   1      33.305  15.976   3.169  0.00  0.00     0.000 A 
HETATM   34  C   UNK N   1      33.562  14.964   4.101  0.00  0.00     0.001 A 
HETATM   35  C   UNK N   1      33.472  15.230   5.473  0.00  0.00     0.009 A 
ENDBRANCH   2  30
TORSDOF 8
ENDMDL
MODEL 3
REMARK VINA RESULT:      -7.8      2.423      9.683
REMARK  8 active torsions:
REMARK  status: ('A' for Active; 'I' for Inactive)
REMARK    1  A    between atoms: C_19  and  C_14 
REMARK    2  A    between atoms: C_26  and  C_14 
REMARK    3  A    between atoms: N_31  and  C_19 
REMARK    4  A    between atoms: C_26  and  C_23 
REMARK    5  A    between atoms: C_26  and  C_24 
REMARK    6  A    between atoms: C_27  and  C_25 
REMARK    7  A    between atoms: O_33  and  C_25 
REMARK    8  A    between atoms: N_32  and  C_27 
ROOT
HETATM    1  C   UNK N   1      34.256  11.023  14.827  0.00  0.00     0.079 C 
HETATM    2  C   UNK N   1      35.587  11.296  15.422  0.00  0.00     0.104 C 
HETATM    3  N   UNK N   1      33.214  10.796  14.375  0.00  0.00    -0.196 NA
ENDROOT
BRANCH   2   4
HETATM    4  C   UNK N   1      36.249  12.340  14.484  0.00  0.00     0.065 C 
BRANCH   4   5
HETATM    5  C   UNK N   1      35.313  13.277  13.717  0.00  0.00     0.275 C 
BRANCH   5   6
HETATM    6  N   UNK N   1      35.888  13.819  12.483  0.00  0.00     0.088 N 
HETATM    7  C   UNK N   1      35.469  13.009  11.317  0.00  0.00     0.275 C 
HETATM    8  C   UNK N   1      34.780  13.808  10.199  0.00  0.00     0.081 C 
HETATM    9  C   UNK N   1      35.630  15.035   9.849  0.00  0.00     0.226 C 
HETATM   10  C   UNK N   1      35.826  15.905  11.122  0.00  0.00     0.081 C 
HETATM   11  C   UNK N   1      35.406  15.203  12.419  0.00  0.00     0.275 C 
BRANCH   9  12
HETATM   12  C   UNK N   1      36.954  14.497   9.329  0.00  0.00     0.149 C 
HETATM   13  N   UNK N   1      37.008  13.769   8.274  0.00  0.00    -0.381 N 
HETATM   14  H   UNK N   1      36.780  12.892   7.891  0.00  0.00     0.158 HD
ATOM     15  HN  UNK N   1      37.466  14.315   7.545  1.00  0.00     0.158 HD
BRANCH  12  16
HETATM   16  O   UNK N   1      38.095  14.805   9.978  0.00  0.00    -0.348 OA
HETATM   17  H   UNK N   1      38.673  14.905  10.709  0.00  0.00     0.219 HD
ENDBRANCH  12  16
ENDBRANCH   9  12
BRANCH   9  18
HETATM   18  N   UNK N   1      34.976  15.821   8.777  0.00  0.00     0.106 N 
HETATM   19  C   UNK N   1      34.860  17.245   9.157  0.00  0.00     0.274 C 
HETATM   20  C   UNK N   1      33.940  18.000   8.207  0.00  0.00     0.030 C 
HETATM   21  C   UNK N   1      32.515  17.448   8.293  0.00  0.00     0.003 C 
HETATM   22  C   UNK N   1      32.460  15.989   8.765  0.00  0.00     0.030 C 
HETATM   23  C   UNK N   1      33.702  15.213   8.316  0.00  0.00     0.274 C 
ENDBRANCH   9  18
ENDBRANCH   5   6
ENDBRANCH   4   5
ENDBRANCH   2   4
BRANCH   2  24
HETATM   24  C   UNK N   1      35.459  11.725  16.914  0.00  0.00    -0.031 A 
HETATM   25  C   UNK N   1      35.179  13.050  17.279  0.00  0.00     0.009 A 
HETATM   26  C   UNK N   1      35.151  13.454  18.617  0.00  0.00     0.001 A 
HETATM   27  C   UNK N   1      35.371  12.521  19.628  0.00  0.00     0.000 A 
HETATM   28  C   UNK N   1      35.600  11.185  19.298  0.00  0.00     0.001 A 
HETATM   29  C   UNK N   1      35.650  10.794  17.958  0.00  0.00     0.009 A 
ENDBRANCH   2  24
BRANCH   2  30
HETATM   30  C   UNK N   1      36.487  10.064  15.360  0.00  0.00    -0.031 A 
HETATM   31  C   UNK N   1      35.882   8.792  15.427  0.00  0.00     0.009 A 
HETATM   32  C   UNK N   1      36.634   7.631  15.274  0.00  0.00     0.001 A 
HETATM   33  C   UNK N   1      38.008   7.720  15.057  0.00  0.00     0.000 A 
HETATM   34  C   UNK N   1      38.631   8.973  15.009  0.00  0.00     0.001 A 
HETATM   35  C   UNK N   1      37.876  10.142  15.157  0.00  0.00     0.009 A 
ENDBRANCH   2  30
TORSDOF 8
ENDMDL
MODEL 4
REMARK VINA RESULT:      -7.6      3.029      9.851
REMARK  8 active torsions:
REMARK  status: ('A' for Active; 'I' for Inactive)
REMARK    1  A    between atoms: C_19  and  C_14 
REMARK    2  A    between atoms: C_26  and  C_14 
REMARK    3  A    between atoms: N_31  and  C_19 
REMARK    4  A    between atoms: C_26  and  C_23 
REMARK    5  A    between atoms: C_26  and  C_24 
REMARK    6  A    between atoms: C_27  and  C_25 
REMARK    7  A    between atoms: O_33  and  C_25 
REMARK    8  A    between atoms: N_32  and  C_27 
ROOT
HETATM    1  C   UNK N   1      34.275  10.925  14.789  0.00  0.00     0.079 C 
HETATM    2  C   UNK N   1      35.621  11.118  15.383  0.00  0.00     0.104 C 
HETATM    3  N   UNK N   1      33.219  10.763  14.341  0.00  0.00    -0.196 NA
ENDROOT
BRANCH   2   4
HETATM    4  C   UNK N   1      36.406  11.969  14.349  0.00  0.00     0.065 C 
BRANCH   4   5
HETATM    5  C   UNK N   1      36.187  11.642  12.870  0.00  0.00     0.275 C 
BRANCH   5   6
HETATM    6  N   UNK N   1      35.491  12.691  12.122  0.00  0.00     0.088 N 
HETATM    7  C   UNK N   1      36.344  13.894  12.001  0.00  0.00     0.275 C 
HETATM    8  C   UNK N   1      36.576  14.369  10.557  0.00  0.00     0.081 C 
HETATM    9  C   UNK N   1      35.231  14.467   9.828  0.00  0.00     0.226 C 
HETATM   10  C   UNK N   1      34.529  13.081   9.857  0.00  0.00     0.081 C 
HETATM   11  C   UNK N   1      35.174  12.082  10.825  0.00  0.00     0.275 C 
BRANCH   9  12
HETATM   12  C   UNK N   1      34.424  15.520  10.571  0.00  0.00     0.149 C 
HETATM   13  N   UNK N   1      34.829  16.735  10.651  0.00  0.00    -0.381 N 
HETATM   14  H   UNK N   1      35.509  17.331  11.041  0.00  0.00     0.158 HD
ATOM     15  HN  UNK N   1      34.201  17.308  10.088  1.00  0.00     0.158 HD
BRANCH  12  16
HETATM   16  O   UNK N   1      33.252  15.176  11.142  0.00  0.00    -0.348 OA
HETATM   17  H   UNK N   1      32.677  14.730  11.732  0.00  0.00     0.219 HD
ENDBRANCH  12  16
ENDBRANCH   9  12
BRANCH   9  18
HETATM   18  N   UNK N   1      35.439  14.916   8.432  0.00  0.00     0.106 N 
HETATM   19  C   UNK N   1      34.164  14.930   7.682  0.00  0.00     0.274 C 
HETATM   20  C   UNK N   1      34.401  15.105   6.188  0.00  0.00     0.030 C 
HETATM   21  C   UNK N   1      35.178  13.911   5.629  0.00  0.00     0.003 C 
HETATM   22  C   UNK N   1      36.035  13.199   6.685  0.00  0.00     0.030 C 
HETATM   23  C   UNK N   1      36.533  14.182   7.749  0.00  0.00     0.274 C 
ENDBRANCH   9  18
ENDBRANCH   5   6
ENDBRANCH   4   5
ENDBRANCH   2   4
BRANCH   2  24
HETATM   24  C   UNK N   1      35.524  11.726  16.813  0.00  0.00    -0.031 A 
HETATM   25  C   UNK N   1      35.593  10.923  17.962  0.00  0.00     0.009 A 
HETATM   26  C   UNK N   1      35.418  11.455  19.242  0.00  0.00     0.001 A 
HETATM   27  C   UNK N   1      35.204  12.823  19.402  0.00  0.00     0.000 A 
HETATM   28  C   UNK N   1      35.184  13.655  18.282  0.00  0.00     0.001 A 
HETATM   29  C   UNK N   1      35.336  13.112  17.004  0.00  0.00     0.009 A 
ENDBRANCH   2  24
BRANCH   2  30
HETATM   30  C   UNK N   1      36.379   9.795  15.481  0.00  0.00    -0.031 A 
HETATM   31  C   UNK N   1      35.632   8.600  15.508  0.00  0.00     0.009 A 
HETATM   32  C   UNK N   1      36.264   7.359  15.495  0.00  0.00     0.001 A 
HETATM   33  C   UNK N   1      37.656   7.292  15.459  0.00  0.00     0.000 A 
HETATM   34  C   UNK N   1      38.415   8.468  15.455  0.00  0.00     0.001 A 
HETATM   35  C   UNK N   1      37.782   9.716  15.463  0.00  0.00     0.009 A 
ENDBRANCH   2  30
TORSDOF 8
ENDMDL
MODEL 5
REMARK VINA RESULT:      -7.6     12.707     15.974
REMARK  8 active torsions:
REMARK  status: ('A' for Active; 'I' for Inactive)
REMARK    1  A    between atoms: C_19  and  C_14 
REMARK    2  A    between atoms: C_26  and  C_14 
REMARK    3  A    between atoms: N_31  and  C_19 
REMARK    4  A    between atoms: C_26  and  C_23 
REMARK    5  A    between atoms: C_26  and  C_24 
REMARK    6  A    between atoms: C_27  and  C_25 
REMARK    7  A    between atoms: O_33  and  C_25 
REMARK    8  A    between atoms: N_32  and  C_27 
ROOT
HETATM    1  C   UNK N   1      21.041  17.649   6.816  0.00  0.00     0.079 C 
HETATM    2  C   UNK N   1      20.126  16.636   7.397  0.00  0.00     0.104 C 
HETATM    3  N   UNK N   1      21.765  18.442   6.379  0.00  0.00    -0.196 NA
ENDROOT
BRANCH   2   4
HETATM    4  C   UNK N   1      19.150  16.260   6.251  0.00  0.00     0.065 C 
BRANCH   4   5
HETATM    5  C   UNK N   1      19.285  14.856   5.656  0.00  0.00     0.275 C 
BRANCH   5   6
HETATM    6  N   UNK N   1      19.445  14.836   4.200  0.00  0.00     0.088 N 
HETATM    7  C   UNK N   1      20.196  16.027   3.745  0.00  0.00     0.275 C 
HETATM    8  C   UNK N   1      21.451  15.711   2.914  0.00  0.00     0.081 C 
HETATM    9  C   UNK N   1      21.090  14.722   1.800  0.00  0.00     0.226 C 
HETATM   10  C   UNK N   1      20.495  13.432   2.430  0.00  0.00     0.081 C 
HETATM   11  C   UNK N   1      20.142  13.577   3.916  0.00  0.00     0.275 C 
BRANCH   9  12
HETATM   12  C   UNK N   1      20.078  15.432   0.915  0.00  0.00     0.149 C 
HETATM   13  N   UNK N   1      18.895  14.963   0.750  0.00  0.00    -0.381 N 
HETATM   14  H   UNK N   1      18.369  14.234   0.349  0.00  0.00     0.158 HD
ATOM     15  HN  UNK N   1      18.244  15.593   1.218  1.00  0.00     0.158 HD
BRANCH  12  16
HETATM   16  O   UNK N   1      20.423  16.585   0.308  0.00  0.00    -0.348 OA
HETATM   17  H   UNK N   1      20.952  17.333   0.112  0.00  0.00     0.219 HD
ENDBRANCH  12  16
ENDBRANCH   9  12
BRANCH   9  18
HETATM   18  N   UNK N   1      22.292  14.401   0.994  0.00  0.00     0.106 N 
HETATM   19  C   UNK N   1      22.174  13.063   0.374  0.00  0.00     0.274 C 
HETATM   20  C   UNK N   1      23.504  12.603  -0.208  0.00  0.00     0.030 C 
HETATM   21  C   UNK N   1      24.543  12.436   0.904  0.00  0.00     0.003 C 
HETATM   22  C   UNK N   1      24.256  13.306   2.135  0.00  0.00     0.030 C 
HETATM   23  C   UNK N   1      23.557  14.611   1.741  0.00  0.00     0.274 C 
ENDBRANCH   9  18
ENDBRANCH   5   6
ENDBRANCH   4   5
ENDBRANCH   2   4
BRANCH   2  24
HETATM   24  C   UNK N   1      20.921  15.448   8.015  0.00  0.00    -0.031 A 
HETATM   25  C   UNK N   1      20.494  14.804   9.186  0.00  0.00     0.009 A 
HETATM   26  C   UNK N   1      21.252  13.797   9.790  0.00  0.00     0.001 A 
HETATM   27  C   UNK N   1      22.448  13.385   9.206  0.00  0.00     0.000 A 
HETATM   28  C   UNK N   1      22.873  13.969   8.012  0.00  0.00     0.001 A 
HETATM   29  C   UNK N   1      22.122  14.992   7.428  0.00  0.00     0.009 A 
ENDBRANCH   2  24
BRANCH   2  30
HETATM   30  C   UNK N   1      19.253  17.242   8.494  0.00  0.00    -0.031 A 
HETATM   31  C   UNK N   1      19.782  18.302   9.258  0.00  0.00     0.009 A 
HETATM   32  C   UNK N   1      19.003  18.963  10.203  0.00  0.00     0.001 A 
HETATM   33  C   UNK N   1      17.680  18.573  10.405  0.00  0.00     0.000 A 
HETATM   34  C   UNK N   1      17.143  17.508   9.672  0.00  0.00     0.001 A 
HETATM   35  C   UNK N   1      17.923  16.845   8.718  0.00  0.00     0.009 A 
ENDBRANCH   2  30
TORSDOF 8
ENDMDL
MODEL 6
REMARK VINA RESULT:      -7.6     15.057     18.008
REMARK  8 active torsions:
REMARK  status: ('A' for Active; 'I' for Inactive)
REMARK    1  A    between atoms: C_19  and  C_14 
REMARK    2  A    between atoms: C_26  and  C_14 
REMARK    3  A    between atoms: N_31  and  C_19 
REMARK    4  A    between atoms: C_26  and  C_23 
REMARK    5  A    between atoms: C_26  and  C_24 
REMARK    6  A    between atoms: C_27  and  C_25 
REMARK    7  A    between atoms: O_33  and  C_25 
REMARK    8  A    between atoms: N_32  and  C_27 
ROOT
HETATM    1  C   UNK N   1      27.651  23.989  -3.142  0.00  0.00     0.079 C 
HETATM    2  C   UNK N   1      27.921  24.528  -4.497  0.00  0.00     0.104 C 
HETATM    3  N   UNK N   1      27.421  23.568  -2.087  0.00  0.00    -0.196 NA
ENDROOT
BRANCH   2   4
HETATM    4  C   UNK N   1      29.450  24.788  -4.537  0.00  0.00     0.065 C 
BRANCH   4   5
HETATM    5  C   UNK N   1      30.274  24.277  -3.353  0.00  0.00     0.275 C 
BRANCH   5   6
HETATM    6  N   UNK N   1      31.282  23.277  -3.713  0.00  0.00     0.088 N 
HETATM    7  C   UNK N   1      30.814  21.918  -3.357  0.00  0.00     0.275 C 
HETATM    8  C   UNK N   1      30.811  20.919  -4.526  0.00  0.00     0.081 C 
HETATM    9  C   UNK N   1      32.169  20.959  -5.237  0.00  0.00     0.226 C 
HETATM   10  C   UNK N   1      32.445  22.404  -5.736  0.00  0.00     0.081 C 
HETATM   11  C   UNK N   1      31.487  23.451  -5.155  0.00  0.00     0.275 C 
BRANCH   9  12
HETATM   12  C   UNK N   1      33.197  20.515  -4.209  0.00  0.00     0.149 C 
HETATM   13  N   UNK N   1      33.201  19.318  -3.746  0.00  0.00    -0.381 N 
HETATM   14  H   UNK N   1      32.716  18.674  -3.181  0.00  0.00     0.158 HD
ATOM     15  HN  UNK N   1      34.032  18.849  -4.106  1.00  0.00     0.158 HD
BRANCH  12  16
HETATM   16  O   UNK N   1      34.134  21.388  -3.789  0.00  0.00    -0.348 OA
HETATM   17  H   UNK N   1      34.972  21.676  -3.484  0.00  0.00     0.219 HD
ENDBRANCH  12  16
ENDBRANCH   9  12
BRANCH   9  18
HETATM   18  N   UNK N   1      32.179  20.006  -6.371  0.00  0.00     0.106 N 
HETATM   19  C   UNK N   1      33.327  20.260  -7.269  0.00  0.00     0.274 C 
HETATM   20  C   UNK N   1      33.189  19.492  -8.576  0.00  0.00     0.030 C 
HETATM   21  C   UNK N   1      31.962  19.976  -9.353  0.00  0.00     0.003 C 
HETATM   22  C   UNK N   1      30.880  20.588  -8.452  0.00  0.00     0.030 C 
HETATM   23  C   UNK N   1      30.872  19.930  -7.069  0.00  0.00     0.274 C 
ENDBRANCH   9  18
ENDBRANCH   5   6
ENDBRANCH   4   5
ENDBRANCH   2   4
BRANCH   2  24
HETATM   24  C   UNK N   1      27.376  23.574  -5.601  0.00  0.00    -0.031 A 
HETATM   25  C   UNK N   1      28.236  22.822  -6.417  0.00  0.00     0.009 A 
HETATM   26  C   UNK N   1      27.753  22.034  -7.464  0.00  0.00     0.001 A 
HETATM   27  C   UNK N   1      26.382  21.953  -7.697  0.00  0.00     0.000 A 
HETATM   28  C   UNK N   1      25.498  22.647  -6.869  0.00  0.00     0.001 A 
HETATM   29  C   UNK N   1      25.990  23.452  -5.839  0.00  0.00     0.009 A 
ENDBRANCH   2  24
BRANCH   2  30
HETATM   30  C   UNK N   1      27.269  25.896  -4.691  0.00  0.00    -0.031 A 
HETATM   31  C   UNK N   1      26.404  26.370  -3.684  0.00  0.00     0.009 A 
HETATM   32  C   UNK N   1      25.859  27.649  -3.752  0.00  0.00     0.001 A 
HETATM   33  C   UNK N   1      26.165  28.476  -4.832  0.00  0.00     0.000 A 
HETATM   34  C   UNK N   1      27.004  28.015  -5.853  0.00  0.00     0.001 A 
HETATM   35  C   UNK N   1      27.558  26.731  -5.784  0.00  0.00     0.009 A 
ENDBRANCH   2  30
TORSDOF 8
ENDMDL
MODEL 7
REMARK VINA RESULT:      -7.5      3.489      6.003
REMARK  8 active torsions:
REMARK  status: ('A' for Active; 'I' for Inactive)
REMARK    1  A    between atoms: C_19  and  C_14 
REMARK    2  A    between atoms: C_26  and  C_14 
REMARK    3  A    between atoms: N_31  and  C_19 
REMARK    4  A    between atoms: C_26  and  C_23 
REMARK    5  A    between atoms: C_26  and  C_24 
REMARK    6  A    between atoms: C_27  and  C_25 
REMARK    7  A    between atoms: O_33  and  C_25 
REMARK    8  A    between atoms: N_32  and  C_27 
ROOT
HETATM    1  C   UNK N   1      28.092  17.245   8.461  0.00  0.00     0.079 C 
HETATM    2  C   UNK N   1      28.437  17.230   7.018  0.00  0.00     0.104 C 
HETATM    3  N   UNK N   1      27.804  17.259   9.583  0.00  0.00    -0.196 NA
ENDROOT
BRANCH   2   4
HETATM    4  C   UNK N   1      29.987  17.174   6.968  0.00  0.00     0.065 C 
BRANCH   4   5
HETATM    5  C   UNK N   1      30.747  18.106   7.915  0.00  0.00     0.275 C 
BRANCH   5   6
HETATM    6  N   UNK N   1      31.911  17.488   8.555  0.00  0.00     0.088 N 
HETATM    7  C   UNK N   1      31.511  16.265   9.286  0.00  0.00     0.275 C 
HETATM    8  C   UNK N   1      32.281  14.998   8.877  0.00  0.00     0.081 C 
HETATM    9  C   UNK N   1      33.786  15.286   8.895  0.00  0.00     0.226 C 
HETATM   10  C   UNK N   1      34.095  16.465   7.930  0.00  0.00     0.081 C 
HETATM   11  C   UNK N   1      32.845  17.218   7.457  0.00  0.00     0.275 C 
BRANCH   9  12
HETATM   12  C   UNK N   1      34.134  15.634  10.334  0.00  0.00     0.149 C 
HETATM   13  N   UNK N   1      34.802  16.692  10.620  0.00  0.00    -0.381 N 
HETATM   14  H   UNK N   1      35.682  17.126  10.558  0.00  0.00     0.158 HD
ATOM     15  HN  UNK N   1      34.172  17.335  11.098  1.00  0.00     0.158 HD
BRANCH  12  16
HETATM   16  O   UNK N   1      33.718  14.825  11.329  0.00  0.00    -0.348 OA
HETATM   17  H   UNK N   1      33.584  14.019  11.788  0.00  0.00     0.219 HD
ENDBRANCH  12  16
ENDBRANCH   9  12
BRANCH   9  18
HETATM   18  N   UNK N   1      34.542  14.076   8.495  0.00  0.00     0.106 N 
HETATM   19  C   UNK N   1      35.814  14.438   7.833  0.00  0.00     0.274 C 
HETATM   20  C   UNK N   1      36.455  13.229   7.164  0.00  0.00     0.030 C 
HETATM   21  C   UNK N   1      35.557  12.703   6.042  0.00  0.00     0.003 C 
HETATM   22  C   UNK N   1      34.075  13.046   6.242  0.00  0.00     0.030 C 
HETATM   23  C   UNK N   1      33.717  13.110   7.730  0.00  0.00     0.274 C 
ENDBRANCH   9  18
ENDBRANCH   5   6
ENDBRANCH   4   5
ENDBRANCH   2   4
BRANCH   2  24
HETATM   24  C   UNK N   1      27.702  16.075   6.276  0.00  0.00    -0.031 A 
HETATM   25  C   UNK N   1      26.327  15.849   6.441  0.00  0.00     0.009 A 
HETATM   26  C   UNK N   1      25.684  14.760   5.845  0.00  0.00     0.001 A 
HETATM   27  C   UNK N   1      26.406  13.887   5.034  0.00  0.00     0.000 A 
HETATM   28  C   UNK N   1      27.764  14.116   4.808  0.00  0.00     0.001 A 
HETATM   29  C   UNK N   1      28.404  15.192   5.427  0.00  0.00     0.009 A 
ENDBRANCH   2  24
BRANCH   2  30
HETATM   30  C   UNK N   1      28.054  18.545   6.342  0.00  0.00    -0.031 A 
HETATM   31  C   UNK N   1      28.113  18.612   4.935  0.00  0.00     0.009 A 
HETATM   32  C   UNK N   1      27.681  19.747   4.253  0.00  0.00     0.001 A 
HETATM   33  C   UNK N   1      27.186  20.837   4.966  0.00  0.00     0.000 A 
HETATM   34  C   UNK N   1      27.140  20.798   6.365  0.00  0.00     0.001 A 
HETATM   35  C   UNK N   1      27.569  19.656   7.053  0.00  0.00     0.009 A 
ENDBRANCH   2  30
TORSDOF 8
ENDMDL
MODEL 8
REMARK VINA RESULT:      -7.5      7.128     11.877
REMARK  8 active torsions:
REMARK  status: ('A' for Active; 'I' for Inactive)
REMARK    1  A    between atoms: C_19  and  C_14 
REMARK    2  A    between atoms: C_26  and  C_14 
REMARK    3  A    between atoms: N_31  and  C_19 
REMARK    4  A    between atoms: C_26  and  C_23 
REMARK    5  A    between atoms: C_26  and  C_24 
REMARK    6  A    between atoms: C_27  and  C_25 
REMARK    7  A    between atoms: O_33  and  C_25 
REMARK    8  A    between atoms: N_32  and  C_27 
ROOT
HETATM    1  C   UNK N   1      28.023  17.377   8.333  0.00  0.00     0.079 C 
HETATM    2  C   UNK N   1      28.338  17.438   6.885  0.00  0.00     0.104 C 
HETATM    3  N   UNK N   1      27.789  17.346   9.468  0.00  0.00    -0.196 NA
ENDROOT
BRANCH   2   4
HETATM    4  C   UNK N   1      27.691  16.168   6.272  0.00  0.00     0.065 C 
BRANCH   4   5
HETATM    5  C   UNK N   1      26.421  15.641   6.945  0.00  0.00     0.275 C 
BRANCH   5   6
HETATM    6  N   UNK N   1      25.373  15.230   6.006  0.00  0.00     0.088 N 
HETATM    7  C   UNK N   1      24.171  14.775   6.739  0.00  0.00     0.275 C 
HETATM    8  C   UNK N   1      22.875  15.508   6.355  0.00  0.00     0.081 C 
HETATM    9  C   UNK N   1      22.725  15.515   4.830  0.00  0.00     0.226 C 
HETATM   10  C   UNK N   1      23.966  16.202   4.195  0.00  0.00     0.081 C 
HETATM   11  C   UNK N   1      25.123  16.414   5.178  0.00  0.00     0.275 C 
BRANCH   9  12
HETATM   12  C   UNK N   1      22.613  14.058   4.408  0.00  0.00     0.149 C 
HETATM   13  N   UNK N   1      21.639  13.324   4.806  0.00  0.00    -0.381 N 
HETATM   14  H   UNK N   1      21.237  12.877   5.585  0.00  0.00     0.158 HD
ATOM     15  HN  UNK N   1      21.049  13.128   3.997  1.00  0.00     0.158 HD
BRANCH  12  16
HETATM   16  O   UNK N   1      23.545  13.533   3.587  0.00  0.00    -0.348 OA
HETATM   17  H   UNK N   1      24.394  13.411   3.211  0.00  0.00     0.219 HD
ENDBRANCH  12  16
ENDBRANCH   9  12
BRANCH   9  18
HETATM   18  N   UNK N   1      21.483  16.225   4.443  0.00  0.00     0.106 N 
HETATM   19  C   UNK N   1      21.499  16.580   3.007  0.00  0.00     0.274 C 
HETATM   20  C   UNK N   1      20.378  17.553   2.664  0.00  0.00     0.030 C 
HETATM   21  C   UNK N   1      20.578  18.878   3.403  0.00  0.00     0.003 C 
HETATM   22  C   UNK N   1      21.394  18.732   4.695  0.00  0.00     0.030 C 
HETATM   23  C   UNK N   1      21.167  17.362   5.342  0.00  0.00     0.274 C 
ENDBRANCH   9  18
ENDBRANCH   5   6
ENDBRANCH   4   5
ENDBRANCH   2   4
BRANCH   2  24
HETATM   24  C   UNK N   1      27.875  18.789   6.264  0.00  0.00    -0.031 A 
HETATM   25  C   UNK N   1      27.688  19.936   7.050  0.00  0.00     0.009 A 
HETATM   26  C   UNK N   1      27.190  21.125   6.510  0.00  0.00     0.001 A 
HETATM   27  C   UNK N   1      26.898  21.199   5.149  0.00  0.00     0.000 A 
HETATM   28  C   UNK N   1      27.124  20.092   4.332  0.00  0.00     0.001 A 
HETATM   29  C   UNK N   1      27.600  18.900   4.884  0.00  0.00     0.009 A 
ENDBRANCH   2  24
BRANCH   2  30
HETATM   30  C   UNK N   1      29.838  17.292   6.635  0.00  0.00    -0.031 A 
HETATM   31  C   UNK N   1      30.280  17.134   5.306  0.00  0.00     0.009 A 
HETATM   32  C   UNK N   1      31.638  17.098   5.001  0.00  0.00     0.001 A 
HETATM   33  C   UNK N   1      32.580  17.215   6.022  0.00  0.00     0.000 A 
HETATM   34  C   UNK N   1      32.160  17.350   7.351  0.00  0.00     0.001 A 
HETATM   35  C   UNK N   1      30.795  17.392   7.659  0.00  0.00     0.009 A 
ENDBRANCH   2  30
TORSDOF 8
ENDMDL
MODEL 9
REMARK VINA RESULT:      -7.4      3.645      6.557
REMARK  8 active torsions:
REMARK  status: ('A' for Active; 'I' for Inactive)
REMARK    1  A    between atoms: C_19  and  C_14 
REMARK    2  A    between atoms: C_26  and  C_14 
REMARK    3  A    between atoms: N_31  and  C_19 
REMARK    4  A    between atoms: C_26  and  C_23 
REMARK    5  A    between atoms: C_26  and  C_24 
REMARK    6  A    between atoms: C_27  and  C_25 
REMARK    7  A    between atoms: O_33  and  C_25 
REMARK    8  A    between atoms: N_32  and  C_27 
ROOT
HETATM    1  C   UNK N   1      27.605  16.067   4.713  0.00  0.00     0.079 C 
HETATM    2  C   UNK N   1      27.913  17.486   5.019  0.00  0.00     0.104 C 
HETATM    3  N   UNK N   1      27.347  14.961   4.483  0.00  0.00    -0.196 NA
ENDROOT
BRANCH   2   4
HETATM    4  C   UNK N   1      29.378  17.696   4.552  0.00  0.00     0.065 C 
BRANCH   4   5
HETATM    5  C   UNK N   1      30.300  16.475   4.585  0.00  0.00     0.275 C 
BRANCH   5   6
HETATM    6  N   UNK N   1      31.545  16.686   5.327  0.00  0.00     0.088 N 
HETATM    7  C   UNK N   1      31.257  17.146   6.704  0.00  0.00     0.275 C 
HETATM    8  C   UNK N   1      31.882  16.279   7.810  0.00  0.00     0.081 C 
HETATM    9  C   UNK N   1      33.370  16.063   7.510  0.00  0.00     0.226 C 
HETATM   10  C   UNK N   1      33.520  15.389   6.118  0.00  0.00     0.081 C 
HETATM   11  C   UNK N   1      32.229  15.389   5.289  0.00  0.00     0.275 C 
BRANCH   9  12
HETATM   12  C   UNK N   1      34.012  17.441   7.538  0.00  0.00     0.149 C 
HETATM   13  N   UNK N   1      34.087  18.117   8.626  0.00  0.00    -0.381 N 
HETATM   14  H   UNK N   1      33.569  18.612   9.301  0.00  0.00     0.158 HD
ATOM     15  HN  UNK N   1      35.069  18.156   8.899  1.00  0.00     0.158 HD
BRANCH  12  16
HETATM   16  O   UNK N   1      34.528  17.954   6.404  0.00  0.00    -0.348 OA
HETATM   17  H   UNK N   1      35.118  18.449   5.869  0.00  0.00     0.219 HD
ENDBRANCH  12  16
ENDBRANCH   9  12
BRANCH   9  18
HETATM   18  N   UNK N   1      33.985  15.223   8.564  0.00  0.00     0.106 N 
HETATM   19  C   UNK N   1      35.295  14.694   8.125  0.00  0.00     0.274 C 
HETATM   20  C   UNK N   1      35.798  13.608   9.066  0.00  0.00     0.030 C 
HETATM   21  C   UNK N   1      34.855  12.403   9.043  0.00  0.00     0.003 C 
HETATM   22  C   UNK N   1      33.420  12.767   8.637  0.00  0.00     0.030 C 
HETATM   23  C   UNK N   1      33.060  14.186   9.086  0.00  0.00     0.274 C 
ENDBRANCH   9  18
ENDBRANCH   5   6
ENDBRANCH   4   5
ENDBRANCH   2   4
BRANCH   2  24
HETATM   24  C   UNK N   1      26.863  18.441   4.377  0.00  0.00    -0.031 A 
HETATM   25  C   UNK N   1      27.242  19.628   3.733  0.00  0.00     0.009 A 
HETATM   26  C   UNK N   1      26.297  20.529   3.234  0.00  0.00     0.001 A 
HETATM   27  C   UNK N   1      24.939  20.238   3.340  0.00  0.00     0.000 A 
HETATM   28  C   UNK N   1      24.532  19.039   3.928  0.00  0.00     0.001 A 
HETATM   29  C   UNK N   1      25.482  18.156   4.445  0.00  0.00     0.009 A 
ENDBRANCH   2  24
BRANCH   2  30
HETATM   30  C   UNK N   1      27.924  17.740   6.525  0.00  0.00    -0.031 A 
HETATM   31  C   UNK N   1      27.621  16.665   7.384  0.00  0.00     0.009 A 
HETATM   32  C   UNK N   1      27.713  16.804   8.767  0.00  0.00     0.001 A 
HETATM   33  C   UNK N   1      28.106  18.024   9.315  0.00  0.00     0.000 A 
HETATM   34  C   UNK N   1      28.390  19.110   8.479  0.00  0.00     0.001 A 
HETATM   35  C   UNK N   1      28.303  18.971   7.088  0.00  0.00     0.009 A 
ENDBRANCH   2  30
TORSDOF 8
ENDMDL
