MODEL 1
REMARK VINA RESULT:     -10.1      0.000      0.000
REMARK  6 active torsions:
REMARK  status: ('A' for Active; 'I' for Inactive)
REMARK    1  A    between atoms: C_24  and  C_19 
REMARK    2  A    between atoms: N_38  and  C_21 
REMARK    3  A    between atoms: N_40  and  C_22 
REMARK    4  A    between atoms: C_29  and  C_23 
REMARK    5  A    between atoms: O_43  and  C_27 
REMARK    6  A    between atoms: O_43  and  C_28 
REMARK       I    between atoms: N_38  and  C_29 
ROOT
HETATM    1  C   UNK N   1      32.643  15.034   8.701  0.00  0.00     0.005 C 
HETATM    2  C   UNK N   1      31.647  15.498   7.882  0.00  0.00     0.038 C 
HETATM    3  C   UNK N   1      34.237  16.358   7.488  0.00  0.00     0.047 C 
HETATM    4  C   UNK N   1      33.892  15.615   8.633  0.00  0.00     0.134 C 
HETATM    5  C   UNK N   1      33.233  16.824   6.649  0.00  0.00     0.148 C 
HETATM    6  C   UNK N   1      31.908  16.497   6.937  0.00  0.00     0.114 C 
HETATM    7  F   UNK N   1      33.532  17.725   5.681  0.00  0.00    -0.203 F 
ENDROOT
BRANCH   4   8
HETATM    8  N   UNK N   1      34.206  16.300   9.819  0.00  0.00    -0.346 N 
HETATM    9  C   UNK N   1      35.439  16.349  10.312  0.00  0.00     0.258 C 
HETATM   10  O   UNK N   1      35.929  17.432  10.590  0.00  0.00    -0.267 OA
HETATM   11  H   UNK N   1      33.484  16.762  10.303  0.00  0.00     0.163 HD
BRANCH   9  12
HETATM   12  C   UNK N   1      36.092  15.109  10.717  0.00  0.00     0.100 A 
HETATM   13  C   UNK N   1      37.178  14.667   9.976  0.00  0.00     0.025 A 
HETATM   14  C   UNK N   1      37.708  13.421  10.213  0.00  0.00     0.026 A 
HETATM   15  C   UNK N   1      37.171  12.612  11.210  0.00  0.00     0.016 A 
HETATM   16  C   UNK N   1      37.819  11.278  11.369  0.00  0.00     0.068 C 
HETATM   17  N   UNK N   1      36.122  13.062  12.007  0.00  0.00    -0.282 N 
HETATM   18  C   UNK N   1      35.574  14.318  11.739  0.00  0.00     0.268 A 
HETATM   19  O   UNK N   1      34.625  14.744  12.377  0.00  0.00    -0.267 OA
BRANCH  17  20
HETATM   20  C   UNK N   1      35.566  12.257  13.102  0.00  0.00     0.042 A 
HETATM   21  C   UNK N   1      34.506  11.358  12.893  0.00  0.00     0.033 A 
HETATM   22  C   UNK N   1      33.981  10.605  13.943  0.00  0.00     0.044 A 
HETATM   23  C   UNK N   1      34.514  10.730  15.227  0.00  0.00     0.116 A 
HETATM   24  C   UNK N   1      35.569  11.605  15.460  0.00  0.00     0.044 A 
HETATM   25  F   UNK N   1      34.006  10.001  16.246  0.00  0.00    -0.206 F 
HETATM   26  C   UNK N   1      36.084  12.358  14.410  0.00  0.00     0.033 A 
ENDBRANCH  17  20
ENDBRANCH   9  12
ENDBRANCH   4   8
BRANCH   6  27
HETATM   27  O   UNK N   1      30.911  17.186   6.339  0.00  0.00    -0.307 OA
BRANCH  27  28
HETATM   28  C   UNK N   1      29.936  16.695   5.527  0.00  0.00     0.088 A 
HETATM   29  C   UNK N   1      30.250  15.894   4.403  0.00  0.00     0.053 A 
HETATM   30  C   UNK N   1      29.249  15.550   3.534  0.00  0.00     0.012 A 
HETATM   31  C   UNK N   1      29.283  14.857   2.342  0.00  0.00     0.121 A 
HETATM   32  C   UNK N   1      27.975  15.966   3.714  0.00  0.00     0.063 A 
HETATM   33  N   UNK N   1      28.030  14.892   1.826  0.00  0.00    -0.309 N 
HETATM   34  N   UNK N   1      27.249  15.571   2.661  0.00  0.00    -0.296 N 
ATOM     35  HN  UNK N   1      27.735  14.470   0.946  1.00  0.00     0.186 HD
HETATM   36  C   UNK N   1      25.850  15.860   2.410  0.00  0.00     0.178 C 
HETATM   37  C   UNK N   1      27.585  16.702   4.837  0.00  0.00     0.047 A 
HETATM   38  C   UNK N   1      28.582  17.053   5.780  0.00  0.00     0.013 A 
BRANCH  38  39
HETATM   39  C   UNK N   1      28.215  17.801   7.010  0.00  0.00     0.011 A 
HETATM   40  C   UNK N   1      27.917  19.142   7.103  0.00  0.00     0.120 A 
HETATM   41  N   UNK N   1      27.606  19.410   8.386  0.00  0.00    -0.311 N 
HETATM   42  N   UNK N   1      27.686  18.294   9.095  0.00  0.00    -0.311 N 
HETATM   43  H   UNK N   1      27.360  20.295   8.741  0.00  0.00     0.186 HD
HETATM   44  C   UNK N   1      28.054  17.287   8.285  0.00  0.00     0.120 A 
ATOM     45  HN  UNK N   1      27.500  18.212  10.095  1.00  0.00     0.186 HD
ENDBRANCH  38  39
ENDBRANCH  27  28
ENDBRANCH   6  27
TORSDOF 6
ENDMDL
MODEL 2
REMARK VINA RESULT:      -9.5      1.563      3.141
REMARK  6 active torsions:
REMARK  status: ('A' for Active; 'I' for Inactive)
REMARK    1  A    between atoms: C_24  and  C_19 
REMARK    2  A    between atoms: N_38  and  C_21 
REMARK    3  A    between atoms: N_40  and  C_22 
REMARK    4  A    between atoms: C_29  and  C_23 
REMARK    5  A    between atoms: O_43  and  C_27 
REMARK    6  A    between atoms: O_43  and  C_28 
REMARK       I    between atoms: N_38  and  C_29 
ROOT
HETATM    1  C   UNK N   1      32.120  15.371   8.725  0.00  0.00     0.005 C 
HETATM    2  C   UNK N   1      31.467  15.991   7.691  0.00  0.00     0.038 C 
HETATM    3  C   UNK N   1      34.212  15.740   7.605  0.00  0.00     0.047 C 
HETATM    4  C   UNK N   1      33.498  15.426   8.777  0.00  0.00     0.134 C 
HETATM    5  C   UNK N   1      33.555  16.360   6.550  0.00  0.00     0.148 C 
HETATM    6  C   UNK N   1      32.187  16.608   6.662  0.00  0.00     0.114 C 
HETATM    7  F   UNK N   1      34.272  16.870   5.519  0.00  0.00    -0.203 F 
ENDROOT
BRANCH   4   8
HETATM    8  N   UNK N   1      33.941  16.175   9.880  0.00  0.00    -0.346 N 
HETATM    9  C   UNK N   1      35.221  16.239  10.232  0.00  0.00     0.258 C 
HETATM   10  O   UNK N   1      35.743  17.332  10.392  0.00  0.00    -0.267 OA
HETATM   11  H   UNK N   1      33.278  16.671  10.412  0.00  0.00     0.163 HD
BRANCH   9  12
HETATM   12  C   UNK N   1      35.909  15.018  10.635  0.00  0.00     0.100 A 
HETATM   13  C   UNK N   1      36.968  14.574   9.856  0.00  0.00     0.025 A 
HETATM   14  C   UNK N   1      37.526  13.341  10.098  0.00  0.00     0.026 A 
HETATM   15  C   UNK N   1      37.046  12.549  11.135  0.00  0.00     0.016 A 
HETATM   16  C   UNK N   1      37.720  11.227  11.295  0.00  0.00     0.068 C 
HETATM   17  N   UNK N   1      36.027  13.002  11.968  0.00  0.00    -0.282 N 
HETATM   18  C   UNK N   1      35.449  14.244  11.697  0.00  0.00     0.268 A 
HETATM   19  O   UNK N   1      34.524  14.672  12.367  0.00  0.00    -0.267 OA
BRANCH  17  20
HETATM   20  C   UNK N   1      35.532  12.215  13.106  0.00  0.00     0.042 A 
HETATM   21  C   UNK N   1      36.095  12.335  14.387  0.00  0.00     0.033 A 
HETATM   22  C   UNK N   1      35.620  11.576  15.457  0.00  0.00     0.044 A 
HETATM   23  C   UNK N   1      34.564  10.684  15.267  0.00  0.00     0.116 A 
HETATM   24  C   UNK N   1      33.983  10.552  14.011  0.00  0.00     0.044 A 
HETATM   25  F   UNK N   1      34.104   9.947  16.302  0.00  0.00    -0.206 F 
HETATM   26  C   UNK N   1      34.464  11.308  12.946  0.00  0.00     0.033 A 
ENDBRANCH  17  20
ENDBRANCH   9  12
ENDBRANCH   4   8
BRANCH   6  27
HETATM   27  O   UNK N   1      31.601  17.478   5.808  0.00  0.00    -0.307 OA
BRANCH  27  28
HETATM   28  C   UNK N   1      30.424  17.321   5.144  0.00  0.00     0.088 A 
HETATM   29  C   UNK N   1      29.220  17.873   5.642  0.00  0.00     0.053 A 
HETATM   30  C   UNK N   1      28.041  17.562   5.021  0.00  0.00     0.012 A 
HETATM   31  C   UNK N   1      26.738  17.891   5.332  0.00  0.00     0.121 A 
HETATM   32  C   UNK N   1      27.995  16.732   3.954  0.00  0.00     0.063 A 
HETATM   33  N   UNK N   1      25.941  17.232   4.455  0.00  0.00    -0.309 N 
HETATM   34  N   UNK N   1      26.712  16.530   3.630  0.00  0.00    -0.296 N 
ATOM     35  HN  UNK N   1      24.922  17.269   4.431  1.00  0.00     0.186 HD
HETATM   36  C   UNK N   1      26.203  15.655   2.592  0.00  0.00     0.178 C 
HETATM   37  C   UNK N   1      29.152  16.206   3.371  0.00  0.00     0.047 A 
HETATM   38  C   UNK N   1      30.399  16.528   3.963  0.00  0.00     0.013 A 
BRANCH  38  39
HETATM   39  C   UNK N   1      31.661  16.028   3.360  0.00  0.00     0.011 A 
HETATM   40  C   UNK N   1      32.045  14.713   3.223  0.00  0.00     0.120 A 
HETATM   41  N   UNK N   1      33.239  14.692   2.598  0.00  0.00    -0.311 N 
HETATM   42  N   UNK N   1      33.610  15.935   2.329  0.00  0.00    -0.311 N 
HETATM   43  H   UNK N   1      33.754  13.883   2.377  0.00  0.00     0.186 HD
HETATM   44  C   UNK N   1      32.667  16.780   2.779  0.00  0.00     0.120 A 
ATOM     45  HN  UNK N   1      34.472  16.208   1.857  1.00  0.00     0.186 HD
ENDBRANCH  38  39
ENDBRANCH  27  28
ENDBRANCH   6  27
TORSDOF 6
ENDMDL
MODEL 3
REMARK VINA RESULT:      -9.5      1.611      3.575
REMARK  6 active torsions:
REMARK  status: ('A' for Active; 'I' for Inactive)
REMARK    1  A    between atoms: C_24  and  C_19 
REMARK    2  A    between atoms: N_38  and  C_21 
REMARK    3  A    between atoms: N_40  and  C_22 
REMARK    4  A    between atoms: C_29  and  C_23 
REMARK    5  A    between atoms: O_43  and  C_27 
REMARK    6  A    between atoms: O_43  and  C_28 
REMARK       I    between atoms: N_38  and  C_29 
ROOT
HETATM    1  C   UNK N   1      33.803  13.666   8.687  0.00  0.00     0.005 C 
HETATM    2  C   UNK N   1      32.727  13.840   7.856  0.00  0.00     0.038 C 
HETATM    3  C   UNK N   1      34.958  15.428   7.534  0.00  0.00     0.047 C 
HETATM    4  C   UNK N   1      34.829  14.588   8.657  0.00  0.00     0.134 C 
HETATM    5  C   UNK N   1      33.873  15.603   6.684  0.00  0.00     0.148 C 
HETATM    6  C   UNK N   1      32.698  14.895   6.938  0.00  0.00     0.114 C 
HETATM    7  F   UNK N   1      33.909  16.576   5.741  0.00  0.00    -0.203 F 
ENDROOT
BRANCH   4   8
HETATM    8  N   UNK N   1      34.912  15.304   9.862  0.00  0.00    -0.346 N 
HETATM    9  C   UNK N   1      36.027  15.364  10.584  0.00  0.00     0.258 C 
HETATM   10  O   UNK N   1      36.462  16.453  10.923  0.00  0.00    -0.267 OA
HETATM   11  H   UNK N   1      34.113  15.780  10.185  0.00  0.00     0.163 HD
BRANCH   9  12
HETATM   12  C   UNK N   1      36.580  14.134  11.139  0.00  0.00     0.100 A 
HETATM   13  C   UNK N   1      37.605  13.504  10.448  0.00  0.00     0.025 A 
HETATM   14  C   UNK N   1      38.031  12.258  10.840  0.00  0.00     0.026 A 
HETATM   15  C   UNK N   1      37.451  11.636  11.942  0.00  0.00     0.016 A 
HETATM   16  C   UNK N   1      37.986  10.282  12.267  0.00  0.00     0.068 C 
HETATM   17  N   UNK N   1      36.466  12.277  12.687  0.00  0.00    -0.282 N 
HETATM   18  C   UNK N   1      36.021  13.532  12.263  0.00  0.00     0.268 A 
HETATM   19  O   UNK N   1      35.129  14.119  12.852  0.00  0.00    -0.267 OA
BRANCH  17  20
HETATM   20  C   UNK N   1      35.869  11.674  13.886  0.00  0.00     0.042 A 
HETATM   21  C   UNK N   1      34.683  10.924  13.823  0.00  0.00     0.033 A 
HETATM   22  C   UNK N   1      34.123  10.362  14.970  0.00  0.00     0.044 A 
HETATM   23  C   UNK N   1      34.744  10.534  16.207  0.00  0.00     0.116 A 
HETATM   24  C   UNK N   1      35.924  11.264  16.297  0.00  0.00     0.044 A 
HETATM   25  F   UNK N   1      34.202   9.991  17.320  0.00  0.00    -0.206 F 
HETATM   26  C   UNK N   1      36.475  11.827  15.150  0.00  0.00     0.033 A 
ENDBRANCH  17  20
ENDBRANCH   9  12
ENDBRANCH   4   8
BRANCH   6  27
HETATM   27  O   UNK N   1      31.552  15.279   6.333  0.00  0.00    -0.307 OA
BRANCH  27  28
HETATM   28  C   UNK N   1      30.756  16.334   6.659  0.00  0.00     0.088 A 
HETATM   29  C   UNK N   1      30.331  16.549   7.991  0.00  0.00     0.053 A 
HETATM   30  C   UNK N   1      29.412  17.533   8.243  0.00  0.00     0.012 A 
HETATM   31  C   UNK N   1      28.778  17.903   9.410  0.00  0.00     0.121 A 
HETATM   32  C   UNK N   1      28.893  18.294   7.253  0.00  0.00     0.063 A 
HETATM   33  N   UNK N   1      27.878  18.864   9.086  0.00  0.00    -0.309 N 
HETATM   34  N   UNK N   1      27.952  19.088   7.778  0.00  0.00    -0.296 N 
ATOM     35  HN  UNK N   1      27.250  19.336   9.737  1.00  0.00     0.186 HD
HETATM   36  C   UNK N   1      27.097  20.015   7.064  0.00  0.00     0.178 C 
HETATM   37  C   UNK N   1      29.320  18.179   5.926  0.00  0.00     0.047 A 
HETATM   38  C   UNK N   1      30.293  17.195   5.624  0.00  0.00     0.013 A 
BRANCH  38  39
HETATM   39  C   UNK N   1      30.810  17.058   4.238  0.00  0.00     0.011 A 
HETATM   40  C   UNK N   1      30.173  16.455   3.176  0.00  0.00     0.120 A 
HETATM   41  N   UNK N   1      30.967  16.574   2.094  0.00  0.00    -0.311 N 
HETATM   42  N   UNK N   1      32.065  17.234   2.432  0.00  0.00    -0.311 N 
HETATM   43  H   UNK N   1      30.764  16.226   1.196  0.00  0.00     0.186 HD
HETATM   44  C   UNK N   1      32.002  17.548   3.737  0.00  0.00     0.120 A 
ATOM     45  HN  UNK N   1      32.834  17.466   1.803  1.00  0.00     0.186 HD
ENDBRANCH  38  39
ENDBRANCH  27  28
ENDBRANCH   6  27
TORSDOF 6
ENDMDL
MODEL 4
REMARK VINA RESULT:      -9.1      3.426     11.329
REMARK  6 active torsions:
REMARK  status: ('A' for Active; 'I' for Inactive)
REMARK    1  A    between atoms: C_24  and  C_19 
REMARK    2  A    between atoms: N_38  and  C_21 
REMARK    3  A    between atoms: N_40  and  C_22 
REMARK    4  A    between atoms: C_29  and  C_23 
REMARK    5  A    between atoms: O_43  and  C_27 
REMARK    6  A    between atoms: O_43  and  C_28 
REMARK       I    between atoms: N_38  and  C_29 
ROOT
HETATM    1  C   UNK N   1      34.878  14.519  11.724  0.00  0.00     0.005 C 
HETATM    2  C   UNK N   1      35.572  14.163  12.852  0.00  0.00     0.038 C 
HETATM    3  C   UNK N   1      36.513  13.385  10.380  0.00  0.00     0.047 C 
HETATM    4  C   UNK N   1      35.235  13.962  10.513  0.00  0.00     0.134 C 
HETATM    5  C   UNK N   1      37.224  13.029  11.518  0.00  0.00     0.148 C 
HETATM    6  C   UNK N   1      36.673  13.304  12.770  0.00  0.00     0.114 C 
HETATM    7  F   UNK N   1      38.342  12.271  11.402  0.00  0.00    -0.203 F 
ENDROOT
BRANCH   4   8
HETATM    8  N   UNK N   1      34.224  13.125  10.015  0.00  0.00    -0.346 N 
HETATM    9  C   UNK N   1      34.060  12.897   8.715  0.00  0.00     0.258 C 
HETATM   10  O   UNK N   1      34.001  11.745   8.313  0.00  0.00    -0.267 OA
HETATM   11  H   UNK N   1      33.613  12.690  10.652  0.00  0.00     0.163 HD
BRANCH   9  12
HETATM   12  C   UNK N   1      33.735  14.012   7.834  0.00  0.00     0.100 A 
HETATM   13  C   UNK N   1      34.612  14.313   6.802  0.00  0.00     0.025 A 
HETATM   14  C   UNK N   1      34.435  15.458   6.063  0.00  0.00     0.026 A 
HETATM   15  C   UNK N   1      33.365  16.304   6.334  0.00  0.00     0.016 A 
HETATM   16  C   UNK N   1      33.280  17.522   5.475  0.00  0.00     0.068 C 
HETATM   17  N   UNK N   1      32.437  15.989   7.322  0.00  0.00    -0.282 N 
HETATM   18  C   UNK N   1      32.642  14.838   8.085  0.00  0.00     0.268 A 
HETATM   19  O   UNK N   1      31.885  14.537   8.993  0.00  0.00    -0.267 OA
BRANCH  17  20
HETATM   20  C   UNK N   1      31.266  16.833   7.598  0.00  0.00     0.042 A 
HETATM   21  C   UNK N   1      30.066  16.688   6.881  0.00  0.00     0.033 A 
HETATM   22  C   UNK N   1      28.964  17.500   7.149  0.00  0.00     0.044 A 
HETATM   23  C   UNK N   1      29.038  18.471   8.147  0.00  0.00     0.116 A 
HETATM   24  C   UNK N   1      30.210  18.630   8.878  0.00  0.00     0.044 A 
HETATM   25  F   UNK N   1      27.971  19.260   8.407  0.00  0.00    -0.206 F 
HETATM   26  C   UNK N   1      31.308  17.821   8.603  0.00  0.00     0.033 A 
ENDBRANCH  17  20
ENDBRANCH   9  12
ENDBRANCH   4   8
BRANCH   6  27
HETATM   27  O   UNK N   1      37.181  12.695  13.864  0.00  0.00    -0.307 OA
BRANCH  27  28
HETATM   28  C   UNK N   1      36.562  12.484  15.057  0.00  0.00     0.088 A 
HETATM   29  C   UNK N   1      36.178  13.564  15.886  0.00  0.00     0.053 A 
HETATM   30  C   UNK N   1      35.696  13.298  17.140  0.00  0.00     0.012 A 
HETATM   31  C   UNK N   1      35.326  14.143  18.167  0.00  0.00     0.121 A 
HETATM   32  C   UNK N   1      35.590  12.035  17.610  0.00  0.00     0.063 A 
HETATM   33  N   UNK N   1      35.027  13.362  19.234  0.00  0.00    -0.309 N 
HETATM   34  N   UNK N   1      35.196  12.090  18.888  0.00  0.00    -0.296 N 
ATOM     35  HN  UNK N   1      34.723  13.696  20.150  1.00  0.00     0.186 HD
HETATM   36  C   UNK N   1      35.022  10.973  19.795  0.00  0.00     0.178 C 
HETATM   37  C   UNK N   1      35.888  10.920  16.820  0.00  0.00     0.047 A 
HETATM   38  C   UNK N   1      36.360  11.147  15.503  0.00  0.00     0.013 A 
BRANCH  38  39
HETATM   39  C   UNK N   1      36.654   9.998  14.608  0.00  0.00     0.011 A 
HETATM   40  C   UNK N   1      37.834   9.291  14.534  0.00  0.00     0.120 A 
HETATM   41  N   UNK N   1      37.673   8.312  13.622  0.00  0.00    -0.311 N 
HETATM   42  N   UNK N   1      36.443   8.370  13.134  0.00  0.00    -0.311 N 
HETATM   43  H   UNK N   1      38.360   7.658  13.361  0.00  0.00     0.186 HD
HETATM   44  C   UNK N   1      35.790   9.390  13.716  0.00  0.00     0.120 A 
ATOM     45  HN  UNK N   1      36.055   7.743  12.429  1.00  0.00     0.186 HD
ENDBRANCH  38  39
ENDBRANCH  27  28
ENDBRANCH   6  27
TORSDOF 6
ENDMDL
MODEL 5
REMARK VINA RESULT:      -8.8      7.787     11.004
REMARK  6 active torsions:
REMARK  status: ('A' for Active; 'I' for Inactive)
REMARK    1  A    between atoms: C_24  and  C_19 
REMARK    2  A    between atoms: N_38  and  C_21 
REMARK    3  A    between atoms: N_40  and  C_22 
REMARK    4  A    between atoms: C_29  and  C_23 
REMARK    5  A    between atoms: O_43  and  C_27 
REMARK    6  A    between atoms: O_43  and  C_28 
REMARK       I    between atoms: N_38  and  C_29 
ROOT
HETATM    1  C   UNK N   1      26.042  13.872   6.010  0.00  0.00     0.005 C 
HETATM    2  C   UNK N   1      25.192  13.605   7.052  0.00  0.00     0.038 C 
HETATM    3  C   UNK N   1      25.365  11.824   4.955  0.00  0.00     0.047 C 
HETATM    4  C   UNK N   1      25.978  13.089   4.875  0.00  0.00     0.134 C 
HETATM    5  C   UNK N   1      24.509  11.545   6.012  0.00  0.00     0.148 C 
HETATM    6  C   UNK N   1      24.321  12.512   6.999  0.00  0.00     0.114 C 
HETATM    7  F   UNK N   1      23.741  10.428   5.978  0.00  0.00    -0.203 F 
ENDROOT
BRANCH   4   8
HETATM    8  N   UNK N   1      25.526  13.824   3.768  0.00  0.00    -0.346 N 
HETATM    9  C   UNK N   1      26.343  14.245   2.806  0.00  0.00     0.258 C 
HETATM   10  O   UNK N   1      26.075  13.993   1.642  0.00  0.00    -0.267 OA
HETATM   11  H   UNK N   1      24.567  14.037   3.701  0.00  0.00     0.163 HD
BRANCH   9  12
HETATM   12  C   UNK N   1      27.410  15.180   3.141  0.00  0.00     0.100 A 
HETATM   13  C   UNK N   1      28.722  14.785   2.920  0.00  0.00     0.025 A 
HETATM   14  C   UNK N   1      29.758  15.560   3.382  0.00  0.00     0.026 A 
HETATM   15  C   UNK N   1      29.495  16.751   4.053  0.00  0.00     0.016 A 
HETATM   16  C   UNK N   1      30.697  17.501   4.519  0.00  0.00     0.068 C 
HETATM   17  N   UNK N   1      28.188  17.197   4.229  0.00  0.00    -0.282 N 
HETATM   18  C   UNK N   1      27.142  16.388   3.779  0.00  0.00     0.268 A 
HETATM   19  O   UNK N   1      25.978  16.708   3.947  0.00  0.00    -0.267 OA
BRANCH  17  20
HETATM   20  C   UNK N   1      27.875  18.474   4.885  0.00  0.00     0.042 A 
HETATM   21  C   UNK N   1      27.524  19.616   4.146  0.00  0.00     0.033 A 
HETATM   22  C   UNK N   1      27.236  20.824   4.780  0.00  0.00     0.044 A 
HETATM   23  C   UNK N   1      27.287  20.912   6.171  0.00  0.00     0.116 A 
HETATM   24  C   UNK N   1      27.624  19.795   6.927  0.00  0.00     0.044 A 
HETATM   25  F   UNK N   1      27.010  22.083   6.787  0.00  0.00    -0.206 F 
HETATM   26  C   UNK N   1      27.915  18.593   6.289  0.00  0.00     0.033 A 
ENDBRANCH  17  20
ENDBRANCH   9  12
ENDBRANCH   4   8
BRANCH   6  27
HETATM   27  O   UNK N   1      23.274  12.397   7.847  0.00  0.00    -0.307 OA
BRANCH  27  28
HETATM   28  C   UNK N   1      22.204  13.230   7.958  0.00  0.00     0.088 A 
HETATM   29  C   UNK N   1      21.635  13.852   6.822  0.00  0.00     0.053 A 
HETATM   30  C   UNK N   1      20.659  14.795   7.001  0.00  0.00     0.012 A 
HETATM   31  C   UNK N   1      19.998  15.599   6.095  0.00  0.00     0.121 A 
HETATM   32  C   UNK N   1      20.235  15.156   8.233  0.00  0.00     0.063 A 
HETATM   33  N   UNK N   1      19.207  16.436   6.810  0.00  0.00    -0.309 N 
HETATM   34  N   UNK N   1      19.363  16.164   8.102  0.00  0.00    -0.296 N 
ATOM     35  HN  UNK N   1      18.596  17.155   6.422  1.00  0.00     0.186 HD
HETATM   36  C   UNK N   1      18.715  16.899   9.170  0.00  0.00     0.178 C 
HETATM   37  C   UNK N   1      20.706  14.534   9.393  0.00  0.00     0.047 A 
HETATM   38  C   UNK N   1      21.694  13.528   9.253  0.00  0.00     0.013 A 
BRANCH  38  39
HETATM   39  C   UNK N   1      22.200  12.808  10.450  0.00  0.00     0.011 A 
HETATM   40  C   UNK N   1      23.505  12.743  10.883  0.00  0.00     0.120 A 
HETATM   41  N   UNK N   1      23.529  12.020  12.020  0.00  0.00    -0.311 N 
HETATM   42  N   UNK N   1      22.296  11.641  12.320  0.00  0.00    -0.311 N 
HETATM   43  H   UNK N   1      24.335  11.807  12.544  0.00  0.00     0.186 HD
HETATM   44  C   UNK N   1      21.455  12.107  11.382  0.00  0.00     0.120 A 
ATOM     45  HN  UNK N   1      22.028  11.084  13.132  1.00  0.00     0.186 HD
ENDBRANCH  38  39
ENDBRANCH  27  28
ENDBRANCH   6  27
TORSDOF 6
ENDMDL
MODEL 6
REMARK VINA RESULT:      -8.8      2.078      3.242
REMARK  6 active torsions:
REMARK  status: ('A' for Active; 'I' for Inactive)
REMARK    1  A    between atoms: C_24  and  C_19 
REMARK    2  A    between atoms: N_38  and  C_21 
REMARK    3  A    between atoms: N_40  and  C_22 
REMARK    4  A    between atoms: C_29  and  C_23 
REMARK    5  A    between atoms: O_43  and  C_27 
REMARK    6  A    between atoms: O_43  and  C_28 
REMARK       I    between atoms: N_38  and  C_29 
ROOT
HETATM    1  C   UNK N   1      33.455  12.822   8.810  0.00  0.00     0.005 C 
HETATM    2  C   UNK N   1      33.088  13.276   7.570  0.00  0.00     0.038 C 
HETATM    3  C   UNK N   1      35.587  13.896   8.554  0.00  0.00     0.047 C 
HETATM    4  C   UNK N   1      34.617  13.299   9.381  0.00  0.00     0.134 C 
HETATM    5  C   UNK N   1      35.224  14.351   7.293  0.00  0.00     0.148 C 
HETATM    6  C   UNK N   1      33.913  14.154   6.859  0.00  0.00     0.114 C 
HETATM    7  F   UNK N   1      36.082  15.127   6.586  0.00  0.00    -0.203 F 
ENDROOT
BRANCH   4   8
HETATM    8  N   UNK N   1      34.349  14.072  10.522  0.00  0.00    -0.346 N 
HETATM    9  C   UNK N   1      35.303  14.464  11.362  0.00  0.00     0.258 C 
HETATM   10  O   UNK N   1      35.392  15.646  11.655  0.00  0.00    -0.267 OA
HETATM   11  H   UNK N   1      33.418  14.334  10.708  0.00  0.00     0.163 HD
BRANCH   9  12
HETATM   12  C   UNK N   1      36.073  13.456  12.081  0.00  0.00     0.100 A 
HETATM   13  C   UNK N   1      37.225  12.961  11.485  0.00  0.00     0.025 A 
HETATM   14  C   UNK N   1      37.879  11.890  12.044  0.00  0.00     0.026 A 
HETATM   15  C   UNK N   1      37.402  11.315  13.218  0.00  0.00     0.016 A 
HETATM   16  C   UNK N   1      38.187  10.152  13.726  0.00  0.00     0.068 C 
HETATM   17  N   UNK N   1      36.286  11.837  13.866  0.00  0.00    -0.282 N 
HETATM   18  C   UNK N   1      35.613  12.908  13.274  0.00  0.00     0.268 A 
HETATM   19  O   UNK N   1      34.604  13.375  13.776  0.00  0.00    -0.267 OA
BRANCH  17  20
HETATM   20  C   UNK N   1      35.787  11.289  15.135  0.00  0.00     0.042 A 
HETATM   21  C   UNK N   1      35.009  10.120  15.179  0.00  0.00     0.033 A 
HETATM   22  C   UNK N   1      34.534   9.615  16.389  0.00  0.00     0.044 A 
HETATM   23  C   UNK N   1      34.836  10.268  17.585  0.00  0.00     0.116 A 
HETATM   24  C   UNK N   1      35.611  11.422  17.571  0.00  0.00     0.044 A 
HETATM   25  F   UNK N   1      34.376   9.780  18.758  0.00  0.00    -0.206 F 
HETATM   26  C   UNK N   1      36.077  11.924  16.360  0.00  0.00     0.033 A 
ENDBRANCH  17  20
ENDBRANCH   9  12
ENDBRANCH   4   8
BRANCH   6  27
HETATM   27  O   UNK N   1      33.457  14.854   5.796  0.00  0.00    -0.307 OA
BRANCH  27  28
HETATM   28  C   UNK N   1      32.252  15.473   5.667  0.00  0.00     0.088 A 
HETATM   29  C   UNK N   1      31.287  15.015   4.739  0.00  0.00     0.053 A 
HETATM   30  C   UNK N   1      30.154  15.758   4.540  0.00  0.00     0.012 A 
HETATM   31  C   UNK N   1      29.105  15.592   3.660  0.00  0.00     0.121 A 
HETATM   32  C   UNK N   1      29.940  16.921   5.196  0.00  0.00     0.063 A 
HETATM   33  N   UNK N   1      28.297  16.673   3.797  0.00  0.00    -0.309 N 
HETATM   34  N   UNK N   1      28.816  17.473   4.723  0.00  0.00    -0.296 N 
ATOM     35  HN  UNK N   1      27.437  16.844   3.276  1.00  0.00     0.186 HD
HETATM   36  C   UNK N   1      28.251  18.754   5.097  0.00  0.00     0.178 C 
HETATM   37  C   UNK N   1      30.820  17.395   6.173  0.00  0.00     0.047 A 
HETATM   38  C   UNK N   1      31.991  16.642   6.436  0.00  0.00     0.013 A 
BRANCH  38  39
HETATM   39  C   UNK N   1      32.939  17.080   7.492  0.00  0.00     0.011 A 
HETATM   40  C   UNK N   1      34.038  17.894   7.328  0.00  0.00     0.120 A 
HETATM   41  N   UNK N   1      34.606  18.072   8.537  0.00  0.00    -0.311 N 
HETATM   42  N   UNK N   1      33.904  17.414   9.448  0.00  0.00    -0.311 N 
HETATM   43  H   UNK N   1      35.415  18.604   8.715  0.00  0.00     0.186 HD
HETATM   44  C   UNK N   1      32.875  16.797   8.844  0.00  0.00     0.120 A 
ATOM     45  HN  UNK N   1      34.112  17.381  10.446  1.00  0.00     0.186 HD
ENDBRANCH  38  39
ENDBRANCH  27  28
ENDBRANCH   6  27
TORSDOF 6
ENDMDL
MODEL 7
REMARK VINA RESULT:      -8.7      5.412      8.607
REMARK  6 active torsions:
REMARK  status: ('A' for Active; 'I' for Inactive)
REMARK    1  A    between atoms: C_24  and  C_19 
REMARK    2  A    between atoms: N_38  and  C_21 
REMARK    3  A    between atoms: N_40  and  C_22 
REMARK    4  A    between atoms: C_29  and  C_23 
REMARK    5  A    between atoms: O_43  and  C_27 
REMARK    6  A    between atoms: O_43  and  C_28 
REMARK       I    between atoms: N_38  and  C_29 
ROOT
HETATM    1  C   UNK N   1      26.926  14.861   6.021  0.00  0.00     0.005 C 
HETATM    2  C   UNK N   1      25.851  14.012   6.092  0.00  0.00     0.038 C 
HETATM    3  C   UNK N   1      25.489  16.583   5.163  0.00  0.00     0.047 C 
HETATM    4  C   UNK N   1      26.709  16.196   5.751  0.00  0.00     0.134 C 
HETATM    5  C   UNK N   1      24.399  15.725   5.224  0.00  0.00     0.148 C 
HETATM    6  C   UNK N   1      24.559  14.475   5.823  0.00  0.00     0.114 C 
HETATM    7  F   UNK N   1      23.170  16.174   4.870  0.00  0.00    -0.203 F 
ENDROOT
BRANCH   4   8
HETATM    8  N   UNK N   1      27.043  17.004   6.850  0.00  0.00    -0.346 N 
HETATM    9  C   UNK N   1      27.890  18.025   6.757  0.00  0.00     0.258 C 
HETATM   10  O   UNK N   1      27.550  19.123   7.168  0.00  0.00    -0.267 OA
HETATM   11  H   UNK N   1      26.634  16.807   7.724  0.00  0.00     0.163 HD
BRANCH   9  12
HETATM   12  C   UNK N   1      29.273  17.766   6.376  0.00  0.00     0.100 A 
HETATM   13  C   UNK N   1      29.613  17.858   5.034  0.00  0.00     0.025 A 
HETATM   14  C   UNK N   1      30.857  17.452   4.613  0.00  0.00     0.026 A 
HETATM   15  C   UNK N   1      31.783  16.970   5.533  0.00  0.00     0.016 A 
HETATM   16  C   UNK N   1      33.094  16.549   4.959  0.00  0.00     0.068 C 
HETATM   17  N   UNK N   1      31.485  16.930   6.892  0.00  0.00    -0.282 N 
HETATM   18  C   UNK N   1      30.209  17.319   7.305  0.00  0.00     0.268 A 
HETATM   19  O   UNK N   1      29.879  17.262   8.478  0.00  0.00    -0.267 OA
BRANCH  17  20
HETATM   20  C   UNK N   1      32.457  16.479   7.897  0.00  0.00     0.042 A 
HETATM   21  C   UNK N   1      32.486  15.149   8.349  0.00  0.00     0.033 A 
HETATM   22  C   UNK N   1      33.409  14.735   9.310  0.00  0.00     0.044 A 
HETATM   23  C   UNK N   1      34.329  15.643   9.832  0.00  0.00     0.116 A 
HETATM   24  C   UNK N   1      34.328  16.963   9.395  0.00  0.00     0.044 A 
HETATM   25  F   UNK N   1      35.224  15.243  10.763  0.00  0.00    -0.206 F 
HETATM   26  C   UNK N   1      33.402  17.373   8.441  0.00  0.00     0.033 A 
ENDBRANCH  17  20
ENDBRANCH   9  12
ENDBRANCH   4   8
BRANCH   6  27
HETATM   27  O   UNK N   1      23.463  13.767   6.177  0.00  0.00    -0.307 OA
BRANCH  27  28
HETATM   28  C   UNK N   1      23.002  13.527   7.435  0.00  0.00     0.088 A 
HETATM   29  C   UNK N   1      23.826  12.931   8.418  0.00  0.00     0.053 A 
HETATM   30  C   UNK N   1      23.274  12.573   9.619  0.00  0.00     0.012 A 
HETATM   31  C   UNK N   1      23.815  11.919  10.706  0.00  0.00     0.121 A 
HETATM   32  C   UNK N   1      21.962  12.763   9.884  0.00  0.00     0.063 A 
HETATM   33  N   UNK N   1      22.806  11.716  11.589  0.00  0.00    -0.309 N 
HETATM   34  N   UNK N   1      21.689  12.224  11.078  0.00  0.00    -0.296 N 
ATOM     35  HN  UNK N   1      22.889  11.250  12.493  1.00  0.00     0.186 HD
HETATM   36  C   UNK N   1      20.392  12.141  11.721  0.00  0.00     0.178 C 
HETATM   37  C   UNK N   1      21.107  13.407   8.983  0.00  0.00     0.047 A 
HETATM   38  C   UNK N   1      21.644  13.823   7.740  0.00  0.00     0.013 A 
BRANCH  38  39
HETATM   39  C   UNK N   1      20.789  14.547   6.764  0.00  0.00     0.011 A 
HETATM   40  C   UNK N   1      20.085  13.996   5.717  0.00  0.00     0.120 A 
HETATM   41  N   UNK N   1      19.416  14.990   5.099  0.00  0.00    -0.311 N 
HETATM   42  N   UNK N   1      19.664  16.133   5.721  0.00  0.00    -0.311 N 
HETATM   43  H   UNK N   1      18.837  14.883   4.310  0.00  0.00     0.186 HD
HETATM   44  C   UNK N   1      20.500  15.900   6.747  0.00  0.00     0.120 A 
ATOM     45  HN  UNK N   1      19.283  17.043   5.462  1.00  0.00     0.186 HD
ENDBRANCH  38  39
ENDBRANCH  27  28
ENDBRANCH   6  27
TORSDOF 6
ENDMDL
MODEL 8
REMARK VINA RESULT:      -8.7      5.720     12.634
REMARK  6 active torsions:
REMARK  status: ('A' for Active; 'I' for Inactive)
REMARK    1  A    between atoms: C_24  and  C_19 
REMARK    2  A    between atoms: N_38  and  C_21 
REMARK    3  A    between atoms: N_40  and  C_22 
REMARK    4  A    between atoms: C_29  and  C_23 
REMARK    5  A    between atoms: O_43  and  C_27 
REMARK    6  A    between atoms: O_43  and  C_28 
REMARK       I    between atoms: N_38  and  C_29 
ROOT
HETATM    1  C   UNK N   1      25.872  18.296   3.894  0.00  0.00     0.005 C 
HETATM    2  C   UNK N   1      27.164  18.487   4.313  0.00  0.00     0.038 C 
HETATM    3  C   UNK N   1      25.611  16.566   5.538  0.00  0.00     0.047 C 
HETATM    4  C   UNK N   1      25.040  17.483   4.636  0.00  0.00     0.134 C 
HETATM    5  C   UNK N   1      26.922  16.749   5.961  0.00  0.00     0.148 C 
HETATM    6  C   UNK N   1      27.656  17.811   5.435  0.00  0.00     0.114 C 
HETATM    7  F   UNK N   1      27.403  16.014   6.994  0.00  0.00    -0.203 F 
ENDROOT
BRANCH   4   8
HETATM    8  N   UNK N   1      23.994  18.216   5.221  0.00  0.00    -0.346 N 
HETATM    9  C   UNK N   1      22.739  17.778   5.242  0.00  0.00     0.258 C 
HETATM   10  O   UNK N   1      22.136  17.743   6.303  0.00  0.00    -0.267 OA
HETATM   11  H   UNK N   1      24.199  19.087   5.632  0.00  0.00     0.163 HD
BRANCH   9  12
HETATM   12  C   UNK N   1      22.041  17.564   3.980  0.00  0.00     0.100 A 
HETATM   13  C   UNK N   1      21.463  18.660   3.354  0.00  0.00     0.025 A 
HETATM   14  C   UNK N   1      20.650  18.476   2.262  0.00  0.00     0.026 A 
HETATM   15  C   UNK N   1      20.423  17.195   1.769  0.00  0.00     0.016 A 
HETATM   16  C   UNK N   1      19.514  17.116   0.587  0.00  0.00     0.068 C 
HETATM   17  N   UNK N   1      21.043  16.088   2.342  0.00  0.00    -0.282 N 
HETATM   18  C   UNK N   1      21.845  16.284   3.468  0.00  0.00     0.268 A 
HETATM   19  O   UNK N   1      22.377  15.345   4.037  0.00  0.00    -0.267 OA
BRANCH  17  20
HETATM   20  C   UNK N   1      20.868  14.728   1.815  0.00  0.00     0.042 A 
HETATM   21  C   UNK N   1      19.761  13.937   2.167  0.00  0.00     0.033 A 
HETATM   22  C   UNK N   1      19.611  12.644   1.665  0.00  0.00     0.044 A 
HETATM   23  C   UNK N   1      20.563  12.118   0.792  0.00  0.00     0.116 A 
HETATM   24  C   UNK N   1      21.663  12.883   0.421  0.00  0.00     0.044 A 
HETATM   25  F   UNK N   1      20.419  10.865   0.306  0.00  0.00    -0.206 F 
HETATM   26  C   UNK N   1      21.812  14.170   0.928  0.00  0.00     0.033 A 
ENDBRANCH  17  20
ENDBRANCH   9  12
ENDBRANCH   4   8
BRANCH   6  27
HETATM   27  O   UNK N   1      28.796  18.196   6.052  0.00  0.00    -0.307 OA
BRANCH  27  28
HETATM   28  C   UNK N   1      30.055  17.733   5.828  0.00  0.00     0.088 A 
HETATM   29  C   UNK N   1      30.556  17.571   4.514  0.00  0.00     0.053 A 
HETATM   30  C   UNK N   1      31.770  16.962   4.338  0.00  0.00     0.012 A 
HETATM   31  C   UNK N   1      32.449  16.612   3.189  0.00  0.00     0.121 A 
HETATM   32  C   UNK N   1      32.495  16.502   5.382  0.00  0.00     0.063 A 
HETATM   33  N   UNK N   1      33.557  15.932   3.575  0.00  0.00    -0.309 N 
HETATM   34  N   UNK N   1      33.571  15.866   4.903  0.00  0.00    -0.296 N 
ATOM     35  HN  UNK N   1      34.261  15.537   2.952  1.00  0.00     0.186 HD
HETATM   36  C   UNK N   1      34.580  15.163   5.670  0.00  0.00     0.178 C 
HETATM   37  C   UNK N   1      32.091  16.691   6.708  0.00  0.00     0.047 A 
HETATM   38  C   UNK N   1      30.856  17.345   6.939  0.00  0.00     0.013 A 
BRANCH  38  39
HETATM   39  C   UNK N   1      30.399  17.605   8.328  0.00  0.00     0.011 A 
HETATM   40  C   UNK N   1      30.382  18.820   8.977  0.00  0.00     0.120 A 
HETATM   41  N   UNK N   1      29.866  18.627  10.206  0.00  0.00    -0.311 N 
HETATM   42  N   UNK N   1      29.550  17.348  10.349  0.00  0.00    -0.311 N 
HETATM   43  H   UNK N   1      29.743  19.324  10.890  0.00  0.00     0.186 HD
HETATM   44  C   UNK N   1      29.861  16.693   9.218  0.00  0.00     0.120 A 
ATOM     45  HN  UNK N   1      29.138  16.928  11.183  1.00  0.00     0.186 HD
ENDBRANCH  38  39
ENDBRANCH  27  28
ENDBRANCH   6  27
TORSDOF 6
ENDMDL
MODEL 9
REMARK VINA RESULT:      -8.4      3.899     11.941
REMARK  6 active torsions:
REMARK  status: ('A' for Active; 'I' for Inactive)
REMARK    1  A    between atoms: C_24  and  C_19 
REMARK    2  A    between atoms: N_38  and  C_21 
REMARK    3  A    between atoms: N_40  and  C_22 
REMARK    4  A    between atoms: C_29  and  C_23 
REMARK    5  A    between atoms: O_43  and  C_27 
REMARK    6  A    between atoms: O_43  and  C_28 
REMARK       I    between atoms: N_38  and  C_29 
ROOT
HETATM    1  C   UNK N   1      34.898  12.387  11.988  0.00  0.00     0.005 C 
HETATM    2  C   UNK N   1      35.280  11.877  13.202  0.00  0.00     0.038 C 
HETATM    3  C   UNK N   1      35.834  14.511  12.604  0.00  0.00     0.047 C 
HETATM    4  C   UNK N   1      35.352  13.635  11.613  0.00  0.00     0.134 C 
HETATM    5  C   UNK N   1      36.215  14.001  13.839  0.00  0.00     0.148 C 
HETATM    6  C   UNK N   1      36.057  12.637  14.082  0.00  0.00     0.114 C 
HETATM    7  F   UNK N   1      36.889  14.790  14.712  0.00  0.00    -0.203 F 
ENDROOT
BRANCH   4   8
HETATM    8  N   UNK N   1      36.220  13.557  10.512  0.00  0.00    -0.346 N 
HETATM    9  C   UNK N   1      36.583  14.626   9.809  0.00  0.00     0.258 C 
HETATM   10  O   UNK N   1      37.770  14.840   9.617  0.00  0.00    -0.267 OA
HETATM   11  H   UNK N   1      36.574  12.676  10.250  0.00  0.00     0.163 HD
BRANCH   9  12
HETATM   12  C   UNK N   1      35.563  15.389   9.101  0.00  0.00     0.100 A 
HETATM   13  C   UNK N   1      35.073  16.543   9.697  0.00  0.00     0.025 A 
HETATM   14  C   UNK N   1      33.992  17.191   9.150  0.00  0.00     0.026 A 
HETATM   15  C   UNK N   1      33.402  16.705   7.987  0.00  0.00     0.016 A 
HETATM   16  C   UNK N   1      32.229  17.484   7.492  0.00  0.00     0.068 C 
HETATM   17  N   UNK N   1      33.917  15.587   7.338  0.00  0.00    -0.282 N 
HETATM   18  C   UNK N   1      34.998  14.920   7.918  0.00  0.00     0.268 A 
HETATM   19  O   UNK N   1      35.461  13.910   7.416  0.00  0.00    -0.267 OA
BRANCH  17  20
HETATM   20  C   UNK N   1      33.352  15.078   6.081  0.00  0.00     0.042 A 
HETATM   21  C   UNK N   1      32.307  14.139   6.067  0.00  0.00     0.033 A 
HETATM   22  C   UNK N   1      31.785  13.659   4.866  0.00  0.00     0.044 A 
HETATM   23  C   UNK N   1      32.295  14.115   3.651  0.00  0.00     0.116 A 
HETATM   24  C   UNK N   1      33.323  15.051   3.635  0.00  0.00     0.044 A 
HETATM   25  F   UNK N   1      31.791  13.649   2.486  0.00  0.00    -0.206 F 
HETATM   26  C   UNK N   1      33.844  15.523   4.836  0.00  0.00     0.033 A 
ENDBRANCH  17  20
ENDBRANCH   9  12
ENDBRANCH   4   8
BRANCH   6  27
HETATM   27  O   UNK N   1      36.701  12.073  15.129  0.00  0.00    -0.307 OA
BRANCH  27  28
HETATM   28  C   UNK N   1      36.173  11.713  16.329  0.00  0.00     0.088 A 
HETATM   29  C   UNK N   1      35.693  12.683  17.241  0.00  0.00     0.053 A 
HETATM   30  C   UNK N   1      35.311  12.284  18.494  0.00  0.00     0.012 A 
HETATM   31  C   UNK N   1      34.885  13.011  19.587  0.00  0.00     0.121 A 
HETATM   32  C   UNK N   1      35.391  10.992  18.886  0.00  0.00     0.063 A 
HETATM   33  N   UNK N   1      34.741  12.137  20.613  0.00  0.00    -0.309 N 
HETATM   34  N   UNK N   1      35.055  10.920  20.180  0.00  0.00    -0.296 N 
ATOM     35  HN  UNK N   1      34.441  12.373  21.559  1.00  0.00     0.186 HD
HETATM   36  C   UNK N   1      35.070   9.738  21.019  0.00  0.00     0.178 C 
HETATM   37  C   UNK N   1      35.791   9.975  18.014  0.00  0.00     0.047 A 
HETATM   38  C   UNK N   1      36.166  10.338  16.697  0.00  0.00     0.013 A 
BRANCH  38  39
HETATM   39  C   UNK N   1      36.562   9.292  15.718  0.00  0.00     0.011 A 
HETATM   40  C   UNK N   1      35.730   8.611  14.858  0.00  0.00     0.120 A 
HETATM   41  N   UNK N   1      36.489   7.776  14.121  0.00  0.00    -0.311 N 
HETATM   42  N   UNK N   1      37.758   7.916  14.476  0.00  0.00    -0.311 N 
HETATM   43  H   UNK N   1      36.154   7.161  13.429  0.00  0.00     0.186 HD
HETATM   44  C   UNK N   1      37.840   8.837  15.451  0.00  0.00     0.120 A 
ATOM     45  HN  UNK N   1      38.545   7.405  14.075  1.00  0.00     0.186 HD
ENDBRANCH  38  39
ENDBRANCH  27  28
ENDBRANCH   6  27
TORSDOF 6
ENDMDL
