MODEL 1
REMARK VINA RESULT:      -5.5      0.000      0.000
REMARK  4 active torsions:
REMARK  status: ('A' for Active; 'I' for Inactive)
REMARK    1  A    between atoms: C_2  and  O_4 
REMARK    2  A    between atoms: O_4  and  C_5 
REMARK    3  A    between atoms: C_5  and  C_6 
REMARK    4  A    between atoms: C_6  and  N_7 
ROOT
HETATM    1  N   UNK N   1      30.437  17.277   7.068  0.00  0.00    -0.320 N 
HETATM    2  C   UNK N   1      31.626  17.269   6.387  0.00  0.00     0.070 A 
HETATM    3  C   UNK N   1      31.863  17.078   5.041  0.00  0.00     0.049 A 
HETATM    4  C   UNK N   1      33.250  17.170   4.901  0.00  0.00     0.091 A 
HETATM    5  N   UNK N   1      33.830  17.407   6.104  0.00  0.00    -0.360 N 
HETATM    6  C   UNK N   1      32.824  17.462   6.990  0.00  0.00     0.128 A 
HETATM    7  C   UNK N   1      32.897  17.681   8.346  0.00  0.00     0.276 A 
HETATM    8  O   UNK N   1      33.963  17.856   8.906  0.00  0.00    -0.266 OA
HETATM    9  N   UNK N   1      31.727  17.695   9.055  0.00  0.00    -0.298 N 
HETATM   10  C   UNK N   1      30.511  17.500   8.454  0.00  0.00     0.181 A 
HETATM   11  S   UNK N   1      29.352  17.538   9.304  0.00  0.00    -0.040 SA
HETATM   12  H   UNK N   1      34.791  17.515   6.288  0.00  0.00     0.165 HD
HETATM   13  H   UNK N   1      31.759  17.850  10.027  0.00  0.00     0.171 HD
ENDROOT
BRANCH   1  14
HETATM   14  C   UNK N   1      29.219  17.047   6.240  0.00  0.00     0.158 C 
BRANCH  14  15
HETATM   15  C   UNK N   1      28.625  18.242   5.513  0.00  0.00     0.188 C 
BRANCH  15  16
HETATM   16  O   UNK N   1      27.909  19.087   6.366  0.00  0.00    -0.385 OA
BRANCH  16  17
HETATM   17  C   UNK N   1      27.461  20.207   5.621  0.00  0.00     0.113 C 
HETATM   18  C   UNK N   1      27.297  20.017   4.129  0.00  0.00     0.039 C 
HETATM   19  C   UNK N   1      27.138  21.578   6.233  0.00  0.00     0.039 C 
ENDBRANCH  16  17
ENDBRANCH  15  16
ENDBRANCH  14  15
ENDBRANCH   1  14
TORSDOF 4
ENDMDL
MODEL 2
REMARK VINA RESULT:      -5.3      2.007      3.031
REMARK  4 active torsions:
REMARK  status: ('A' for Active; 'I' for Inactive)
REMARK    1  A    between atoms: C_2  and  O_4 
REMARK    2  A    between atoms: O_4  and  C_5 
REMARK    3  A    between atoms: C_5  and  C_6 
REMARK    4  A    between atoms: C_6  and  N_7 
ROOT
HETATM    1  N   UNK N   1      31.038  16.923   5.386  0.00  0.00    -0.320 N 
HETATM    2  C   UNK N   1      31.178  17.115   6.736  0.00  0.00     0.070 A 
HETATM    3  C   UNK N   1      30.240  16.994   7.740  0.00  0.00     0.049 A 
HETATM    4  C   UNK N   1      30.927  17.304   8.917  0.00  0.00     0.091 A 
HETATM    5  N   UNK N   1      32.221  17.601   8.642  0.00  0.00    -0.360 N 
HETATM    6  C   UNK N   1      32.349  17.479   7.312  0.00  0.00     0.128 A 
HETATM    7  C   UNK N   1      33.474  17.675   6.546  0.00  0.00     0.276 A 
HETATM    8  O   UNK N   1      34.535  18.002   7.044  0.00  0.00    -0.266 OA
HETATM    9  N   UNK N   1      33.367  17.491   5.194  0.00  0.00    -0.298 N 
HETATM   10  C   UNK N   1      32.187  17.123   4.603  0.00  0.00     0.181 A 
HETATM   11  S   UNK N   1      32.199  16.961   3.174  0.00  0.00    -0.040 SA
HETATM   12  H   UNK N   1      32.922  17.853   9.287  0.00  0.00     0.165 HD
HETATM   13  H   UNK N   1      34.162  17.627   4.629  0.00  0.00     0.171 HD
ENDROOT
BRANCH   1  14
HETATM   14  C   UNK N   1      29.675  16.525   4.931  0.00  0.00     0.158 C 
BRANCH  14  15
HETATM   15  C   UNK N   1      28.785  17.607   4.343  0.00  0.00     0.188 C 
BRANCH  15  16
HETATM   16  O   UNK N   1      29.039  18.868   4.892  0.00  0.00    -0.385 OA
BRANCH  16  17
HETATM   17  C   UNK N   1      27.830  19.608   4.900  0.00  0.00     0.113 C 
HETATM   18  C   UNK N   1      27.557  20.459   6.121  0.00  0.00     0.039 C 
HETATM   19  C   UNK N   1      26.802  19.596   3.760  0.00  0.00     0.039 C 
ENDBRANCH  16  17
ENDBRANCH  15  16
ENDBRANCH  14  15
ENDBRANCH   1  14
TORSDOF 4
ENDMDL
MODEL 3
REMARK VINA RESULT:      -5.3      2.596      5.522
REMARK  4 active torsions:
REMARK  status: ('A' for Active; 'I' for Inactive)
REMARK    1  A    between atoms: C_2  and  O_4 
REMARK    2  A    between atoms: O_4  and  C_5 
REMARK    3  A    between atoms: C_5  and  C_6 
REMARK    4  A    between atoms: C_6  and  N_7 
ROOT
HETATM    1  N   UNK N   1      28.353  18.234   6.535  0.00  0.00    -0.320 N 
HETATM    2  C   UNK N   1      27.790  19.017   5.562  0.00  0.00     0.070 A 
HETATM    3  C   UNK N   1      27.839  18.879   4.189  0.00  0.00     0.049 A 
HETATM    4  C   UNK N   1      27.094  19.952   3.691  0.00  0.00     0.091 A 
HETATM    5  N   UNK N   1      26.615  20.706   4.711  0.00  0.00    -0.360 N 
HETATM    6  C   UNK N   1      27.050  20.119   5.836  0.00  0.00     0.128 A 
HETATM    7  C   UNK N   1      26.829  20.506   7.137  0.00  0.00     0.276 A 
HETATM    8  O   UNK N   1      26.168  21.492   7.404  0.00  0.00    -0.266 OA
HETATM    9  N   UNK N   1      27.379  19.745   8.132  0.00  0.00    -0.298 N 
HETATM   10  C   UNK N   1      28.128  18.629   7.864  0.00  0.00     0.181 A 
HETATM   11  S   UNK N   1      28.652  17.912   8.995  0.00  0.00    -0.040 SA
HETATM   12  H   UNK N   1      26.061  21.518   4.639  0.00  0.00     0.165 HD
HETATM   13  H   UNK N   1      27.231  20.007   9.070  0.00  0.00     0.171 HD
ENDROOT
BRANCH   1  14
HETATM   14  C   UNK N   1      29.134  17.062   6.046  0.00  0.00     0.158 C 
BRANCH  14  15
HETATM   15  C   UNK N   1      30.640  17.220   5.924  0.00  0.00     0.188 C 
BRANCH  15  16
HETATM   16  O   UNK N   1      31.032  17.670   4.660  0.00  0.00    -0.385 OA
BRANCH  16  17
HETATM   17  C   UNK N   1      32.375  17.276   4.436  0.00  0.00     0.113 C 
HETATM   18  C   UNK N   1      33.346  17.468   5.581  0.00  0.00     0.039 C 
HETATM   19  C   UNK N   1      32.891  16.676   3.121  0.00  0.00     0.039 C 
ENDBRANCH  16  17
ENDBRANCH  15  16
ENDBRANCH  14  15
ENDBRANCH   1  14
TORSDOF 4
ENDMDL
MODEL 4
REMARK VINA RESULT:      -5.2      1.927      3.115
REMARK  4 active torsions:
REMARK  status: ('A' for Active; 'I' for Inactive)
REMARK    1  A    between atoms: C_2  and  O_4 
REMARK    2  A    between atoms: O_4  and  C_5 
REMARK    3  A    between atoms: C_5  and  C_6 
REMARK    4  A    between atoms: C_6  and  N_7 
ROOT
HETATM    1  N   UNK N   1      29.874  17.472   6.224  0.00  0.00    -0.320 N 
HETATM    2  C   UNK N   1      29.732  17.755   7.557  0.00  0.00     0.070 A 
HETATM    3  C   UNK N   1      28.601  18.120   8.258  0.00  0.00     0.049 A 
HETATM    4  C   UNK N   1      29.031  18.284   9.578  0.00  0.00     0.091 A 
HETATM    5  N   UNK N   1      30.360  18.030   9.675  0.00  0.00    -0.360 N 
HETATM    6  C   UNK N   1      30.762  17.712   8.436  0.00  0.00     0.128 A 
HETATM    7  C   UNK N   1      32.027  17.372   8.014  0.00  0.00     0.276 A 
HETATM    8  O   UNK N   1      32.965  17.328   8.787  0.00  0.00    -0.266 OA
HETATM    9  N   UNK N   1      32.202  17.084   6.688  0.00  0.00    -0.298 N 
HETATM   10  C   UNK N   1      31.166  17.125   5.792  0.00  0.00     0.181 A 
HETATM   11  S   UNK N   1      31.475  16.801   4.426  0.00  0.00    -0.040 SA
HETATM   12  H   UNK N   1      30.914  18.072  10.488  0.00  0.00     0.165 HD
HETATM   13  H   UNK N   1      33.101  16.838   6.368  0.00  0.00     0.171 HD
ENDROOT
BRANCH   1  14
HETATM   14  C   UNK N   1      28.630  17.571   5.408  0.00  0.00     0.158 C 
BRANCH  14  15
HETATM   15  C   UNK N   1      28.345  18.894   4.717  0.00  0.00     0.188 C 
BRANCH  15  16
HETATM   16  O   UNK N   1      27.237  18.828   3.868  0.00  0.00    -0.385 OA
BRANCH  16  17
HETATM   17  C   UNK N   1      26.466  20.006   4.038  0.00  0.00     0.113 C 
HETATM   18  C   UNK N   1      25.609  20.439   2.869  0.00  0.00     0.039 C 
HETATM   19  C   UNK N   1      26.454  20.851   5.319  0.00  0.00     0.039 C 
ENDBRANCH  16  17
ENDBRANCH  15  16
ENDBRANCH  14  15
ENDBRANCH   1  14
TORSDOF 4
ENDMDL
MODEL 5
REMARK VINA RESULT:      -5.2      8.550      9.969
REMARK  4 active torsions:
REMARK  status: ('A' for Active; 'I' for Inactive)
REMARK    1  A    between atoms: C_2  and  O_4 
REMARK    2  A    between atoms: O_4  and  C_5 
REMARK    3  A    between atoms: C_5  and  C_6 
REMARK    4  A    between atoms: C_6  and  N_7 
ROOT
HETATM    1  N   UNK N   1      22.886  13.274   8.704  0.00  0.00    -0.320 N 
HETATM    2  C   UNK N   1      22.216  12.841   9.818  0.00  0.00     0.070 A 
HETATM    3  C   UNK N   1      20.859  12.802  10.064  0.00  0.00     0.049 A 
HETATM    4  C   UNK N   1      20.740  12.272  11.352  0.00  0.00     0.091 A 
HETATM    5  N   UNK N   1      21.966  12.001  11.865  0.00  0.00    -0.360 N 
HETATM    6  C   UNK N   1      22.845  12.355  10.916  0.00  0.00     0.128 A 
HETATM    7  C   UNK N   1      24.217  12.274  10.956  0.00  0.00     0.276 A 
HETATM    8  O   UNK N   1      24.801  11.840  11.932  0.00  0.00    -0.266 OA
HETATM    9  N   UNK N   1      24.915  12.698   9.859  0.00  0.00    -0.298 N 
HETATM   10  C   UNK N   1      24.288  13.191   8.745  0.00  0.00     0.181 A 
HETATM   11  S   UNK N   1      25.129  13.605   7.655  0.00  0.00    -0.040 SA
HETATM   12  H   UNK N   1      22.167  11.622  12.752  0.00  0.00     0.165 HD
HETATM   13  H   UNK N   1      25.899  12.647   9.869  0.00  0.00     0.171 HD
ENDROOT
BRANCH   1  14
HETATM   14  C   UNK N   1      22.028  13.776   7.592  0.00  0.00     0.158 C 
BRANCH  14  15
HETATM   15  C   UNK N   1      22.119  15.253   7.246  0.00  0.00     0.188 C 
BRANCH  15  16
HETATM   16  O   UNK N   1      20.947  15.739   6.659  0.00  0.00    -0.385 OA
BRANCH  16  17
HETATM   17  C   UNK N   1      20.695  17.040   7.163  0.00  0.00     0.113 C 
HETATM   18  C   UNK N   1      21.284  18.200   6.391  0.00  0.00     0.039 C 
HETATM   19  C   UNK N   1      19.872  17.332   8.426  0.00  0.00     0.039 C 
ENDBRANCH  16  17
ENDBRANCH  15  16
ENDBRANCH  14  15
ENDBRANCH   1  14
TORSDOF 4
ENDMDL
MODEL 6
REMARK VINA RESULT:      -5.2      6.585      9.457
REMARK  4 active torsions:
REMARK  status: ('A' for Active; 'I' for Inactive)
REMARK    1  A    between atoms: C_2  and  O_4 
REMARK    2  A    between atoms: O_4  and  C_5 
REMARK    3  A    between atoms: C_5  and  C_6 
REMARK    4  A    between atoms: C_6  and  N_7 
ROOT
HETATM    1  N   UNK N   1      35.532  13.373  11.439  0.00  0.00    -0.320 N 
HETATM    2  C   UNK N   1      35.296  14.657  11.024  0.00  0.00     0.070 A 
HETATM    3  C   UNK N   1      35.891  15.833  11.435  0.00  0.00     0.049 A 
HETATM    4  C   UNK N   1      35.268  16.834  10.685  0.00  0.00     0.091 A 
HETATM    5  N   UNK N   1      34.340  16.294   9.857  0.00  0.00    -0.360 N 
HETATM    6  C   UNK N   1      34.375  14.972  10.082  0.00  0.00     0.128 A 
HETATM    7  C   UNK N   1      33.620  13.989   9.487  0.00  0.00     0.276 A 
HETATM    8  O   UNK N   1      32.788  14.251   8.638  0.00  0.00    -0.266 OA
HETATM    9  N   UNK N   1      33.831  12.695   9.879  0.00  0.00    -0.298 N 
HETATM   10  C   UNK N   1      34.760  12.368  10.831  0.00  0.00     0.181 A 
HETATM   11  S   UNK N   1      34.891  10.974  11.159  0.00  0.00    -0.040 SA
HETATM   12  H   UNK N   1      33.759  16.775   9.223  0.00  0.00     0.165 HD
HETATM   13  H   UNK N   1      33.299  11.978   9.463  0.00  0.00     0.171 HD
ENDROOT
BRANCH   1  14
HETATM   14  C   UNK N   1      36.582  13.216  12.485  0.00  0.00     0.158 C 
BRANCH  14  15
HETATM   15  C   UNK N   1      36.155  13.353  13.937  0.00  0.00     0.188 C 
BRANCH  15  16
HETATM   16  O   UNK N   1      34.771  13.250  14.102  0.00  0.00    -0.385 OA
BRANCH  16  17
HETATM   17  C   UNK N   1      34.505  12.254  15.074  0.00  0.00     0.113 C 
HETATM   18  C   UNK N   1      34.957  12.539  16.490  0.00  0.00     0.039 C 
HETATM   19  C   UNK N   1      33.795  10.925  14.778  0.00  0.00     0.039 C 
ENDBRANCH  16  17
ENDBRANCH  15  16
ENDBRANCH  14  15
ENDBRANCH   1  14
TORSDOF 4
ENDMDL
MODEL 7
REMARK VINA RESULT:      -5.1      8.695     10.596
REMARK  4 active torsions:
REMARK  status: ('A' for Active; 'I' for Inactive)
REMARK    1  A    between atoms: C_2  and  O_4 
REMARK    2  A    between atoms: O_4  and  C_5 
REMARK    3  A    between atoms: C_5  and  C_6 
REMARK    4  A    between atoms: C_6  and  N_7 
ROOT
HETATM    1  N   UNK N   1      35.814  12.048  12.264  0.00  0.00    -0.320 N 
HETATM    2  C   UNK N   1      35.964  13.342  11.840  0.00  0.00     0.070 A 
HETATM    3  C   UNK N   1      35.114  14.419  11.995  0.00  0.00     0.049 A 
HETATM    4  C   UNK N   1      35.765  15.486  11.370  0.00  0.00     0.091 A 
HETATM    5  N   UNK N   1      36.953  15.079  10.858  0.00  0.00    -0.360 N 
HETATM    6  C   UNK N   1      37.051  13.774  11.156  0.00  0.00     0.128 A 
HETATM    7  C   UNK N   1      38.076  12.908  10.853  0.00  0.00     0.276 A 
HETATM    8  O   UNK N   1      39.060  13.277  10.240  0.00  0.00    -0.266 OA
HETATM    9  N   UNK N   1      37.956  11.609  11.263  0.00  0.00    -0.298 N 
HETATM   10  C   UNK N   1      36.861  11.163  11.955  0.00  0.00     0.181 A 
HETATM   11  S   UNK N   1      36.851   9.775  12.331  0.00  0.00    -0.040 SA
HETATM   12  H   UNK N   1      37.608  15.628  10.369  0.00  0.00     0.165 HD
HETATM   13  H   UNK N   1      38.680  10.974  11.055  0.00  0.00     0.171 HD
ENDROOT
BRANCH   1  14
HETATM   14  C   UNK N   1      34.552  11.755  13.002  0.00  0.00     0.158 C 
BRANCH  14  15
HETATM   15  C   UNK N   1      34.614  11.730  14.520  0.00  0.00     0.188 C 
BRANCH  15  16
HETATM   16  O   UNK N   1      34.335  12.976  15.089  0.00  0.00    -0.385 OA
BRANCH  16  17
HETATM   17  C   UNK N   1      35.353  13.282  16.027  0.00  0.00     0.113 C 
HETATM   18  C   UNK N   1      36.702  13.677  15.470  0.00  0.00     0.039 C 
HETATM   19  C   UNK N   1      35.165  13.236  17.550  0.00  0.00     0.039 C 
ENDBRANCH  16  17
ENDBRANCH  15  16
ENDBRANCH  14  15
ENDBRANCH   1  14
TORSDOF 4
ENDMDL
MODEL 8
REMARK VINA RESULT:      -5.0     10.534     12.518
REMARK  4 active torsions:
REMARK  status: ('A' for Active; 'I' for Inactive)
REMARK    1  A    between atoms: C_2  and  O_4 
REMARK    2  A    between atoms: O_4  and  C_5 
REMARK    3  A    between atoms: C_5  and  C_6 
REMARK    4  A    between atoms: C_6  and  N_7 
ROOT
HETATM    1  N   UNK N   1      35.387  13.086  15.238  0.00  0.00    -0.320 N 
HETATM    2  C   UNK N   1      34.951  12.137  14.351  0.00  0.00     0.070 A 
HETATM    3  C   UNK N   1      33.928  11.220  14.483  0.00  0.00     0.049 A 
HETATM    4  C   UNK N   1      33.925  10.507  13.281  0.00  0.00     0.091 A 
HETATM    5  N   UNK N   1      34.899  10.967  12.458  0.00  0.00    -0.360 N 
HETATM    6  C   UNK N   1      35.508  11.956  13.129  0.00  0.00     0.128 A 
HETATM    7  C   UNK N   1      36.562  12.738  12.719  0.00  0.00     0.276 A 
HETATM    8  O   UNK N   1      37.076  12.591  11.625  0.00  0.00    -0.266 OA
HETATM    9  N   UNK N   1      37.021  13.695  13.582  0.00  0.00    -0.298 N 
HETATM   10  C   UNK N   1      36.464  13.886  14.819  0.00  0.00     0.181 A 
HETATM   11  S   UNK N   1      37.034  14.923  15.635  0.00  0.00    -0.040 SA
HETATM   12  H   UNK N   1      35.114  10.641  11.553  0.00  0.00     0.165 HD
HETATM   13  H   UNK N   1      37.776  14.265  13.305  0.00  0.00     0.171 HD
ENDROOT
BRANCH   1  14
HETATM   14  C   UNK N   1      34.654  13.141  16.535  0.00  0.00     0.158 C 
BRANCH  14  15
HETATM   15  C   UNK N   1      35.271  12.422  17.723  0.00  0.00     0.188 C 
BRANCH  15  16
HETATM   16  O   UNK N   1      34.935  11.066  17.764  0.00  0.00    -0.385 OA
BRANCH  16  17
HETATM   17  C   UNK N   1      36.126  10.309  17.896  0.00  0.00     0.113 C 
HETATM   18  C   UNK N   1      36.797   9.858  16.617  0.00  0.00     0.039 C 
HETATM   19  C   UNK N   1      36.762   9.927  19.240  0.00  0.00     0.039 C 
ENDBRANCH  16  17
ENDBRANCH  15  16
ENDBRANCH  14  15
ENDBRANCH   1  14
TORSDOF 4
ENDMDL
MODEL 9
REMARK VINA RESULT:      -5.0     11.362     13.009
REMARK  4 active torsions:
REMARK  status: ('A' for Active; 'I' for Inactive)
REMARK    1  A    between atoms: C_2  and  O_4 
REMARK    2  A    between atoms: O_4  and  C_5 
REMARK    3  A    between atoms: C_5  and  C_6 
REMARK    4  A    between atoms: C_6  and  N_7 
ROOT
HETATM    1  N   UNK N   1      29.413  23.044  -5.351  0.00  0.00    -0.320 N 
HETATM    2  C   UNK N   1      30.193  22.049  -4.823  0.00  0.00     0.070 A 
HETATM    3  C   UNK N   1      30.771  20.963  -5.449  0.00  0.00     0.049 A 
HETATM    4  C   UNK N   1      31.453  20.282  -4.437  0.00  0.00     0.091 A 
HETATM    5  N   UNK N   1      31.297  20.922  -3.251  0.00  0.00    -0.360 N 
HETATM    6  C   UNK N   1      30.529  21.991  -3.511  0.00  0.00     0.128 A 
HETATM    7  C   UNK N   1      30.089  22.954  -2.634  0.00  0.00     0.276 A 
HETATM    8  O   UNK N   1      30.380  22.920  -1.453  0.00  0.00    -0.266 OA
HETATM    9  N   UNK N   1      29.308  23.961  -3.130  0.00  0.00    -0.298 N 
HETATM   10  C   UNK N   1      28.963  24.028  -4.455  0.00  0.00     0.181 A 
HETATM   11  S   UNK N   1      28.138  25.135  -4.856  0.00  0.00    -0.040 SA
HETATM   12  H   UNK N   1      31.672  20.656  -2.380  0.00  0.00     0.165 HD
HETATM   13  H   UNK N   1      28.983  24.660  -2.517  0.00  0.00     0.171 HD
ENDROOT
BRANCH   1  14
HETATM   14  C   UNK N   1      29.147  22.945  -6.815  0.00  0.00     0.158 C 
BRANCH  14  15
HETATM   15  C   UNK N   1      28.018  22.033  -7.264  0.00  0.00     0.188 C 
BRANCH  15  16
HETATM   16  O   UNK N   1      26.765  22.476  -6.831  0.00  0.00    -0.385 OA
BRANCH  16  17
HETATM   17  C   UNK N   1      25.764  21.744  -7.518  0.00  0.00     0.113 C 
HETATM   18  C   UNK N   1      26.091  21.288  -8.923  0.00  0.00     0.039 C 
HETATM   19  C   UNK N   1      24.392  21.393  -6.926  0.00  0.00     0.039 C 
ENDBRANCH  16  17
ENDBRANCH  15  16
ENDBRANCH  14  15
ENDBRANCH   1  14
TORSDOF 4
ENDMDL
