REMARK  4 active torsions:
REMARK  status: ('A' for Active; 'I' for Inactive)
REMARK       I    between atoms: C_5  and  N_9 
REMARK    1  A    between atoms: N_9  and  C_10 
REMARK    2  A    between atoms: C_10  and  C_11 
REMARK    3  A    between atoms: C_14  and  C_17 
REMARK    4  A    between atoms: C_17  and  N_18 
REMARK       I    between atoms: N_18  and  C_19 
ROOT
HETATM    1  C   UNK N   1       1.998  -4.580  -0.043  0.00  0.00    -0.040 A 
HETATM    2  C   UNK N   1       0.604  -4.426  -0.047  0.00  0.00     0.009 A 
HETATM    3  C   UNK N   1       0.042  -3.150  -0.057  0.00  0.00     0.009 A 
HETATM    4  C   UNK N   1       0.863  -2.020  -0.057  0.00  0.00    -0.040 A 
HETATM    5  C   UNK N   1       2.257  -2.173  -0.061  0.00  0.00     0.009 A 
HETATM    6  C   UNK N   1       2.820  -3.450  -0.056  0.00  0.00     0.009 A 
ENDROOT
BRANCH   1   7
HETATM    7  C   UNK N   1       2.641  -5.926  -0.017  0.00  0.00     0.176 C 
BRANCH   7   8
HETATM    8  N   UNK N   1       1.680  -6.995   0.079  0.00  0.00    -0.222 N 
HETATM    9  C   UNK N   1       2.107  -8.342   0.054  0.00  0.00     0.677 A 
HETATM   10  N   UNK N   1       1.192  -9.342   0.150  0.00  0.00    -0.202 N 
HETATM   11  N   UNK N   1       3.429  -8.637  -0.076  0.00  0.00    -0.202 N 
HETATM   12  C   UNK N   1       1.583 -10.644   0.116  0.00  0.00     0.107 A 
ATOM     13  HN  UNK N   1       0.203  -9.114   0.248  1.00  0.00     0.183 HD
HETATM   14  C   UNK N   1       2.933 -10.963  -0.020  0.00  0.00     0.035 A 
HETATM   15  C   UNK N   1       3.855  -9.925  -0.114  0.00  0.00     0.107 A 
ATOM     16  HN  UNK N   1       4.109  -7.880  -0.146  1.00  0.00     0.183 HD
HETATM   17  H   UNK N   1       0.721  -6.787   0.162  0.00  0.00     0.178 HD
ENDBRANCH   7   8
ENDBRANCH   1   7
BRANCH   4  18
HETATM   18  C   UNK N   1       0.219  -0.674  -0.043  0.00  0.00     0.176 C 
BRANCH  18  19
HETATM   19  N   UNK N   1       1.179   0.396   0.066  0.00  0.00    -0.222 N 
HETATM   20  C   UNK N   1       0.750   1.742   0.049  0.00  0.00     0.677 A 
HETATM   21  N   UNK N   1      -0.572   2.037  -0.087  0.00  0.00    -0.202 N 
HETATM   22  N   UNK N   1       1.663   2.743   0.159  0.00  0.00    -0.202 N 
HETATM   23  C   UNK N   1      -0.999   3.324  -0.118  0.00  0.00     0.107 A 
ATOM     24  HN  UNK N   1      -1.250   1.279  -0.167  1.00  0.00     0.183 HD
HETATM   25  C   UNK N   1      -0.079   4.363  -0.009  0.00  0.00     0.035 A 
HETATM   26  C   UNK N   1       1.271   4.044   0.133  0.00  0.00     0.107 A 
ATOM     27  HN  UNK N   1       2.652   2.515   0.262  1.00  0.00     0.183 HD
HETATM   28  H   UNK N   1       2.137   0.188   0.152  0.00  0.00     0.178 HD
ENDBRANCH  18  19
ENDBRANCH   4  18
TORSDOF 4
