REMARK  5 active torsions:
REMARK  status: ('A' for Active; 'I' for Inactive)
REMARK    1  A    between atoms: C_10  and  N_16 
REMARK    2  A    between atoms: N_19  and  C_22 
REMARK    3  A    between atoms: C_22  and  N_24 
REMARK    4  A    between atoms: N_24  and  C_25 
REMARK    5  A    between atoms: C_25  and  C_26 
ROOT
HETATM    1  N   UNK N   1       0.031   1.797   0.481  0.00  0.00    -0.362 N 
HETATM    2  C   UNK N   1      -1.357   1.387   0.511  0.00  0.00     0.144 C 
HETATM    3  C   UNK N   1      -2.115   2.164  -0.558  0.00  0.00     0.145 C 
HETATM    4  N   UNK N   1      -1.863   3.576  -0.364  0.00  0.00    -0.355 N 
HETATM    5  C   UNK N   1      -0.474   4.009  -0.392  0.00  0.00     0.145 C 
HETATM    6  C   UNK N   1       0.330   3.207   0.630  0.00  0.00     0.144 C 
ENDROOT
BRANCH   1   7
HETATM    7  C   UNK N   1       1.080   0.856   0.258  0.00  0.00     0.141 A 
HETATM    8  C   UNK N   1       0.843  -0.516   0.159  0.00  0.00     0.147 A 
HETATM    9  C   UNK N   1       1.887  -1.372  -0.050  0.00  0.00     0.084 A 
HETATM   10  O   UNK N   1      -0.288  -1.192   0.244  0.00  0.00    -0.304 OA
HETATM   11  C   UNK N   1       1.360  -2.633  -0.094  0.00  0.00     0.028 A 
HETATM   12  N   UNK N   1       3.165  -0.946  -0.170  0.00  0.00    -0.349 N 
HETATM   13  C   UNK N   1       0.004  -2.471   0.094  0.00  0.00     0.088 A 
HETATM   14  C   UNK N   1       1.936  -3.885  -0.275  0.00  0.00     0.017 A 
HETATM   15  C   UNK N   1      -0.867  -3.556   0.114  0.00  0.00     0.038 A 
HETATM   16  C   UNK N   1      -0.314  -4.838  -0.067  0.00  0.00     0.003 A 
HETATM   17  C   UNK N   1       1.079  -5.002  -0.260  0.00  0.00     0.001 A 
HETATM   18  C   UNK N   1       3.408   0.396  -0.074  0.00  0.00     0.182 A 
ATOM     19  HN  UNK N   1       3.926  -1.607  -0.329  1.00  0.00     0.166 HD
HETATM   20  N   UNK N   1       2.378   1.280   0.139  0.00  0.00    -0.336 N 
ATOM     21  HN  UNK N   1       2.584   2.276   0.212  1.00  0.00     0.168 HD
ENDBRANCH   1   7
BRANCH   4  22
HETATM   22  C   UNK N   1      -2.935   4.484  -0.028  0.00  0.00     0.170 C 
HETATM   23  S   UNK N   1      -2.641   5.799   0.485  0.00  0.00    -0.041 SA
BRANCH  22  24
HETATM   24  N   UNK N   1      -4.306   4.127  -0.206  0.00  0.00    -0.363 N 
HETATM   25  H   UNK N   1      -4.993   4.614   0.304  0.00  0.00     0.162 HD
BRANCH  24  26
HETATM   26  C   UNK N   1      -4.722   3.079  -1.104  0.00  0.00     0.160 C 
BRANCH  26  27
HETATM   27  C   UNK N   1      -5.843   2.262  -0.561  0.00  0.00    -0.038 A 
HETATM   28  C   UNK N   1      -5.639   0.884  -0.316  0.00  0.00     0.012 A 
HETATM   29  C   UNK N   1      -6.713   0.067   0.085  0.00  0.00     0.040 A 
HETATM   30  C   UNK N   1      -7.964   0.664   0.210  0.00  0.00     0.105 A 
HETATM   31  C   UNK N   1      -8.161   1.968  -0.021  0.00  0.00     0.105 A 
HETATM   32  O   UNK N   1      -9.121   0.097   0.543  0.00  0.00    -0.323 OA
HETATM   33  C   UNK N   1      -7.130   2.821  -0.413  0.00  0.00     0.048 A 
HETATM   34  O   UNK N   1      -9.448   2.256   0.163  0.00  0.00    -0.323 OA
HETATM   35  C   UNK N   1     -10.116   1.081   0.524  0.00  0.00     0.352 A 
ENDBRANCH  26  27
ENDBRANCH  24  26
ENDBRANCH  22  24
ENDBRANCH   4  22
TORSDOF 5
