MODEL 1
REMARK VINA RESULT:      -5.8      0.000      0.000
REMARK  11 active torsions:
REMARK  status: ('A' for Active; 'I' for Inactive)
REMARK    1  A    between atoms: C_2  and  O_3 
REMARK    2  A    between atoms: O_3  and  C_4 
REMARK    3  A    between atoms: C_4  and  C_6 
REMARK    4  A    between atoms: C_9  and  O_12 
REMARK    5  A    between atoms: O_12  and  C_13 
REMARK    6  A    between atoms: C_13  and  C_15 
REMARK    7  A    between atoms: C_15  and  C_16 
REMARK    8  A    between atoms: C_16  and  C_17 
REMARK    9  A    between atoms: C_17  and  C_18 
REMARK   10  A    between atoms: C_18  and  C_19 
REMARK   11  A    between atoms: C_19  and  N_20 
REMARK       I    between atoms: N_20  and  C_21 
REMARK       I    between atoms: C_21  and  N_24 
ROOT
HETATM    1  C   UNK N   1      25.538  25.300  -5.080  0.00  0.00     0.264 C 
HETATM    2  O   UNK N   1      25.076  24.206  -5.378  0.00  0.00    -0.265 OA
ENDROOT
BRANCH   1   3
HETATM    3  O   UNK N   1      26.371  25.447  -4.018  0.00  0.00    -0.279 OA
BRANCH   3   4
HETATM    4  C   UNK N   1      27.523  24.781  -3.751  0.00  0.00     0.079 A 
HETATM    5  C   UNK N   1      27.636  23.827  -2.724  0.00  0.00     0.038 A 
HETATM    6  C   UNK N   1      28.853  23.168  -2.508  0.00  0.00     0.020 A 
HETATM    7  C   UNK N   1      29.970  23.449  -3.315  0.00  0.00     0.039 A 
HETATM    8  C   UNK N   1      29.843  24.407  -4.326  0.00  0.00     0.020 A 
HETATM    9  C   UNK N   1      28.636  25.068  -4.539  0.00  0.00     0.038 A 
BRANCH   7  10
HETATM   10  C   UNK N   1      31.256  22.718  -3.083  0.00  0.00     0.293 C 
HETATM   11  O   UNK N   1      31.489  22.289  -1.965  0.00  0.00    -0.259 OA
BRANCH  10  12
HETATM   12  O   UNK N   1      32.185  22.495  -4.060  0.00  0.00    -0.318 OA
BRANCH  12  13
HETATM   13  C   UNK N   1      32.016  21.689  -5.161  0.00  0.00     0.174 C 
HETATM   14  C   UNK N   1      31.456  20.348  -4.737  0.00  0.00     0.034 C 
ENDBRANCH  12  13
ENDBRANCH  10  12
ENDBRANCH   7  10
ENDBRANCH   3   4
ENDBRANCH   1   3
BRANCH   1  15
HETATM   15  C   UNK N   1      25.228  26.520  -5.899  0.00  0.00     0.111 C 
BRANCH  15  16
HETATM   16  C   UNK N   1      26.221  26.808  -7.013  0.00  0.00     0.010 C 
BRANCH  16  17
HETATM   17  C   UNK N   1      25.814  26.106  -8.303  0.00  0.00     0.002 C 
BRANCH  17  18
HETATM   18  C   UNK N   1      26.725  24.924  -8.603  0.00  0.00     0.020 C 
BRANCH  18  19
HETATM   19  C   UNK N   1      25.931  23.720  -9.094  0.00  0.00     0.138 C 
BRANCH  19  20
HETATM   20  N   UNK N   1      25.041  23.239  -8.066  0.00  0.00    -0.227 N 
HETATM   21  C   UNK N   1      24.747  21.861  -7.896  0.00  0.00     0.665 C 
HETATM   22  N   UNK N   1      23.981  21.492  -6.940  0.00  0.00    -0.235 N 
HETATM   23  N   UNK N   1      25.302  20.889  -8.759  0.00  0.00    -0.235 N 
HETATM   24  H   UNK N   1      23.436  20.676  -7.010  0.00  0.00     0.174 HD
ATOM     25  HN  UNK N   1      23.933  22.055  -6.090  1.00  0.00     0.174 HD
HETATM   26  H   UNK N   1      26.053  21.026  -9.380  0.00  0.00     0.174 HD
HETATM   27  H   UNK N   1      24.899  19.990  -8.737  0.00  0.00     0.174 HD
HETATM   28  H   UNK N   1      24.621  23.891  -7.460  0.00  0.00     0.177 HD
ENDBRANCH  19  20
ENDBRANCH  18  19
ENDBRANCH  17  18
ENDBRANCH  16  17
ENDBRANCH  15  16
ENDBRANCH   1  15
TORSDOF 11
ENDMDL
MODEL 2
REMARK VINA RESULT:      -5.7      1.592      5.653
REMARK  11 active torsions:
REMARK  status: ('A' for Active; 'I' for Inactive)
REMARK    1  A    between atoms: C_2  and  O_3 
REMARK    2  A    between atoms: O_3  and  C_4 
REMARK    3  A    between atoms: C_4  and  C_6 
REMARK    4  A    between atoms: C_9  and  O_12 
REMARK    5  A    between atoms: O_12  and  C_13 
REMARK    6  A    between atoms: C_13  and  C_15 
REMARK    7  A    between atoms: C_15  and  C_16 
REMARK    8  A    between atoms: C_16  and  C_17 
REMARK    9  A    between atoms: C_17  and  C_18 
REMARK   10  A    between atoms: C_18  and  C_19 
REMARK   11  A    between atoms: C_19  and  N_20 
REMARK       I    between atoms: N_20  and  C_21 
REMARK       I    between atoms: C_21  and  N_24 
ROOT
HETATM    1  C   UNK N   1      31.742  21.621  -2.621  0.00  0.00     0.264 C 
HETATM    2  O   UNK N   1      32.876  21.307  -2.286  0.00  0.00    -0.265 OA
ENDROOT
BRANCH   1   3
HETATM    3  O   UNK N   1      31.120  22.700  -2.080  0.00  0.00    -0.279 OA
BRANCH   3   4
HETATM    4  C   UNK N   1      30.127  23.456  -2.612  0.00  0.00     0.079 A 
HETATM    5  C   UNK N   1      30.368  24.558  -3.451  0.00  0.00     0.038 A 
HETATM    6  C   UNK N   1      29.295  25.291  -3.975  0.00  0.00     0.020 A 
HETATM    7  C   UNK N   1      27.969  24.931  -3.673  0.00  0.00     0.039 A 
HETATM    8  C   UNK N   1      27.748  23.838  -2.828  0.00  0.00     0.020 A 
HETATM    9  C   UNK N   1      28.812  23.111  -2.302  0.00  0.00     0.038 A 
BRANCH   7  10
HETATM   10  C   UNK N   1      26.835  25.712  -4.260  0.00  0.00     0.293 C 
HETATM   11  O   UNK N   1      25.994  26.174  -3.506  0.00  0.00    -0.259 OA
BRANCH  10  12
HETATM   12  O   UNK N   1      26.693  25.948  -5.598  0.00  0.00    -0.318 OA
BRANCH  12  13
HETATM   13  C   UNK N   1      26.196  27.099  -6.163  0.00  0.00     0.174 C 
HETATM   14  C   UNK N   1      27.296  28.132  -6.280  0.00  0.00     0.034 C 
ENDBRANCH  12  13
ENDBRANCH  10  12
ENDBRANCH   7  10
ENDBRANCH   3   4
ENDBRANCH   1   3
BRANCH   1  15
HETATM   15  C   UNK N   1      31.003  20.844  -3.673  0.00  0.00     0.111 C 
BRANCH  15  16
HETATM   16  C   UNK N   1      31.643  20.871  -5.052  0.00  0.00     0.010 C 
BRANCH  16  17
HETATM   17  C   UNK N   1      30.584  20.911  -6.146  0.00  0.00     0.002 C 
BRANCH  17  18
HETATM   18  C   UNK N   1      29.497  21.929  -5.830  0.00  0.00     0.020 C 
BRANCH  18  19
HETATM   19  C   UNK N   1      28.537  22.100  -7.001  0.00  0.00     0.138 C 
BRANCH  19  20
HETATM   20  N   UNK N   1      27.461  22.996  -6.654  0.00  0.00    -0.227 N 
HETATM   21  C   UNK N   1      26.107  22.725  -6.986  0.00  0.00     0.665 C 
HETATM   22  N   UNK N   1      25.192  23.539  -6.615  0.00  0.00    -0.235 N 
HETATM   23  N   UNK N   1      25.755  21.561  -7.706  0.00  0.00    -0.235 N 
HETATM   24  H   UNK N   1      24.357  23.634  -7.128  0.00  0.00     0.174 HD
ATOM     25  HN  UNK N   1      25.330  24.100  -5.774  1.00  0.00     0.174 HD
HETATM   26  H   UNK N   1      26.330  20.776  -7.855  0.00  0.00     0.174 HD
HETATM   27  H   UNK N   1      24.851  21.533  -8.095  0.00  0.00     0.174 HD
HETATM   28  H   UNK N   1      27.673  23.826  -6.171  0.00  0.00     0.177 HD
ENDBRANCH  19  20
ENDBRANCH  18  19
ENDBRANCH  17  18
ENDBRANCH  16  17
ENDBRANCH  15  16
ENDBRANCH   1  15
TORSDOF 11
ENDMDL
MODEL 3
REMARK VINA RESULT:      -5.6     11.525     13.891
REMARK  11 active torsions:
REMARK  status: ('A' for Active; 'I' for Inactive)
REMARK    1  A    between atoms: C_2  and  O_3 
REMARK    2  A    between atoms: O_3  and  C_4 
REMARK    3  A    between atoms: C_4  and  C_6 
REMARK    4  A    between atoms: C_9  and  O_12 
REMARK    5  A    between atoms: O_12  and  C_13 
REMARK    6  A    between atoms: C_13  and  C_15 
REMARK    7  A    between atoms: C_15  and  C_16 
REMARK    8  A    between atoms: C_16  and  C_17 
REMARK    9  A    between atoms: C_17  and  C_18 
REMARK   10  A    between atoms: C_18  and  C_19 
REMARK   11  A    between atoms: C_19  and  N_20 
REMARK       I    between atoms: N_20  and  C_21 
REMARK       I    between atoms: C_21  and  N_24 
ROOT
HETATM    1  C   UNK N   1      28.398  17.216   6.093  0.00  0.00     0.264 C 
HETATM    2  O   UNK N   1      27.617  16.323   6.393  0.00  0.00    -0.265 OA
ENDROOT
BRANCH   1   3
HETATM    3  O   UNK N   1      29.677  16.943   5.731  0.00  0.00    -0.279 OA
BRANCH   3   4
HETATM    4  C   UNK N   1      30.821  17.207   6.411  0.00  0.00     0.079 A 
HETATM    5  C   UNK N   1      30.854  17.425   7.800  0.00  0.00     0.038 A 
HETATM    6  C   UNK N   1      32.072  17.683   8.442  0.00  0.00     0.020 A 
HETATM    7  C   UNK N   1      33.272  17.723   7.709  0.00  0.00     0.039 A 
HETATM    8  C   UNK N   1      33.219  17.513   6.327  0.00  0.00     0.020 A 
HETATM    9  C   UNK N   1      32.010  17.262   5.685  0.00  0.00     0.038 A 
BRANCH   7  10
HETATM   10  C   UNK N   1      34.566  17.978   8.417  0.00  0.00     0.293 C 
HETATM   11  O   UNK N   1      35.035  19.104   8.384  0.00  0.00    -0.259 OA
BRANCH  10  12
HETATM   12  O   UNK N   1      35.251  17.020   9.109  0.00  0.00    -0.318 OA
BRANCH  12  13
HETATM   13  C   UNK N   1      35.223  16.840  10.472  0.00  0.00     0.174 C 
HETATM   14  C   UNK N   1      34.692  15.460  10.798  0.00  0.00     0.034 C 
ENDBRANCH  12  13
ENDBRANCH  10  12
ENDBRANCH   7  10
ENDBRANCH   3   4
ENDBRANCH   1   3
BRANCH   1  15
HETATM   15  C   UNK N   1      27.961  18.653   6.081  0.00  0.00     0.111 C 
BRANCH  15  16
HETATM   16  C   UNK N   1      28.327  19.420   4.820  0.00  0.00     0.010 C 
BRANCH  16  17
HETATM   17  C   UNK N   1      27.144  19.493   3.862  0.00  0.00     0.002 C 
BRANCH  17  18
HETATM   18  C   UNK N   1      25.903  20.039   4.553  0.00  0.00     0.020 C 
BRANCH  18  19
HETATM   19  C   UNK N   1      24.666  19.219   4.206  0.00  0.00     0.138 C 
BRANCH  19  20
HETATM   20  N   UNK N   1      24.367  18.276   5.256  0.00  0.00    -0.227 N 
HETATM   21  C   UNK N   1      24.722  16.904   5.172  0.00  0.00     0.665 C 
HETATM   22  N   UNK N   1      24.465  16.124   6.153  0.00  0.00    -0.235 N 
HETATM   23  N   UNK N   1      25.371  16.391   4.025  0.00  0.00    -0.235 N 
HETATM   24  H   UNK N   1      24.307  15.163   6.012  0.00  0.00     0.174 HD
ATOM     25  HN  UNK N   1      24.422  16.506   7.099  1.00  0.00     0.174 HD
HETATM   26  H   UNK N   1      25.800  16.922   3.316  0.00  0.00     0.174 HD
HETATM   27  H   UNK N   1      25.394  15.412   3.926  0.00  0.00     0.174 HD
HETATM   28  H   UNK N   1      23.897  18.595   6.060  0.00  0.00     0.177 HD
ENDBRANCH  19  20
ENDBRANCH  18  19
ENDBRANCH  17  18
ENDBRANCH  16  17
ENDBRANCH  15  16
ENDBRANCH   1  15
TORSDOF 11
ENDMDL
MODEL 4
REMARK VINA RESULT:      -5.6     14.814     16.420
REMARK  11 active torsions:
REMARK  status: ('A' for Active; 'I' for Inactive)
REMARK    1  A    between atoms: C_2  and  O_3 
REMARK    2  A    between atoms: O_3  and  C_4 
REMARK    3  A    between atoms: C_4  and  C_6 
REMARK    4  A    between atoms: C_9  and  O_12 
REMARK    5  A    between atoms: O_12  and  C_13 
REMARK    6  A    between atoms: C_13  and  C_15 
REMARK    7  A    between atoms: C_15  and  C_16 
REMARK    8  A    between atoms: C_16  and  C_17 
REMARK    9  A    between atoms: C_17  and  C_18 
REMARK   10  A    between atoms: C_18  and  C_19 
REMARK   11  A    between atoms: C_19  and  N_20 
REMARK       I    between atoms: N_20  and  C_21 
REMARK       I    between atoms: C_21  and  N_24 
ROOT
HETATM    1  C   UNK N   1      19.398  16.134   5.982  0.00  0.00     0.264 C 
HETATM    2  O   UNK N   1      18.370  15.973   5.338  0.00  0.00    -0.265 OA
ENDROOT
BRANCH   1   3
HETATM    3  O   UNK N   1      19.497  15.711   7.269  0.00  0.00    -0.279 OA
BRANCH   3   4
HETATM    4  C   UNK N   1      20.290  14.734   7.777  0.00  0.00     0.079 A 
HETATM    5  C   UNK N   1      20.693  13.611   7.034  0.00  0.00     0.038 A 
HETATM    6  C   UNK N   1      21.521  12.642   7.617  0.00  0.00     0.020 A 
HETATM    7  C   UNK N   1      21.960  12.785   8.946  0.00  0.00     0.039 A 
HETATM    8  C   UNK N   1      21.541  13.904   9.673  0.00  0.00     0.020 A 
HETATM    9  C   UNK N   1      20.715  14.865   9.098  0.00  0.00     0.038 A 
BRANCH   7  10
HETATM   10  C   UNK N   1      22.863  11.751   9.544  0.00  0.00     0.293 C 
HETATM   11  O   UNK N   1      23.613  11.135   8.806  0.00  0.00    -0.259 OA
BRANCH  10  12
HETATM   12  O   UNK N   1      22.900  11.463  10.879  0.00  0.00    -0.318 OA
BRANCH  12  13
HETATM   13  C   UNK N   1      23.837  11.922  11.775  0.00  0.00     0.174 C 
HETATM   14  C   UNK N   1      23.255  11.927  13.172  0.00  0.00     0.034 C 
ENDBRANCH  12  13
ENDBRANCH  10  12
ENDBRANCH   7  10
ENDBRANCH   3   4
ENDBRANCH   1   3
BRANCH   1  15
HETATM   15  C   UNK N   1      20.606  16.776   5.363  0.00  0.00     0.111 C 
BRANCH  15  16
HETATM   16  C   UNK N   1      21.311  15.929   4.315  0.00  0.00     0.010 C 
BRANCH  16  17
HETATM   17  C   UNK N   1      21.588  16.739   3.054  0.00  0.00     0.002 C 
BRANCH  17  18
HETATM   18  C   UNK N   1      20.444  16.624   2.058  0.00  0.00     0.020 C 
BRANCH  18  19
HETATM   19  C   UNK N   1      20.142  17.964   1.399  0.00  0.00     0.138 C 
BRANCH  19  20
HETATM   20  N   UNK N   1      20.530  19.056   2.258  0.00  0.00    -0.227 N 
HETATM   21  C   UNK N   1      20.682  20.384   1.781  0.00  0.00     0.665 C 
HETATM   22  N   UNK N   1      20.990  21.318   2.600  0.00  0.00    -0.235 N 
HETATM   23  N   UNK N   1      20.484  20.692   0.416  0.00  0.00    -0.235 N 
HETATM   24  H   UNK N   1      21.488  22.113   2.303  0.00  0.00     0.174 HD
ATOM     25  HN  UNK N   1      20.714  21.236   3.580  1.00  0.00     0.174 HD
HETATM   26  H   UNK N   1      20.049  20.114  -0.252  0.00  0.00     0.174 HD
HETATM   27  H   UNK N   1      20.813  21.566   0.103  0.00  0.00     0.174 HD
HETATM   28  H   UNK N   1      20.696  18.873   3.211  0.00  0.00     0.177 HD
ENDBRANCH  19  20
ENDBRANCH  18  19
ENDBRANCH  17  18
ENDBRANCH  16  17
ENDBRANCH  15  16
ENDBRANCH   1  15
TORSDOF 11
ENDMDL
MODEL 5
REMARK VINA RESULT:      -5.5     21.913     24.866
REMARK  11 active torsions:
REMARK  status: ('A' for Active; 'I' for Inactive)
REMARK    1  A    between atoms: C_2  and  O_3 
REMARK    2  A    between atoms: O_3  and  C_4 
REMARK    3  A    between atoms: C_4  and  C_6 
REMARK    4  A    between atoms: C_9  and  O_12 
REMARK    5  A    between atoms: O_12  and  C_13 
REMARK    6  A    between atoms: C_13  and  C_15 
REMARK    7  A    between atoms: C_15  and  C_16 
REMARK    8  A    between atoms: C_16  and  C_17 
REMARK    9  A    between atoms: C_17  and  C_18 
REMARK   10  A    between atoms: C_18  and  C_19 
REMARK   11  A    between atoms: C_19  and  N_20 
REMARK       I    between atoms: N_20  and  C_21 
REMARK       I    between atoms: C_21  and  N_24 
ROOT
HETATM    1  C   UNK N   1      35.465  13.530  13.546  0.00  0.00     0.264 C 
HETATM    2  O   UNK N   1      36.091  14.581  13.518  0.00  0.00    -0.265 OA
ENDROOT
BRANCH   1   3
HETATM    3  O   UNK N   1      34.586  13.259  14.544  0.00  0.00    -0.279 OA
BRANCH   3   4
HETATM    4  C   UNK N   1      34.835  12.720  15.764  0.00  0.00     0.079 A 
HETATM    5  C   UNK N   1      34.946  13.491  16.934  0.00  0.00     0.038 A 
HETATM    6  C   UNK N   1      35.195  12.870  18.165  0.00  0.00     0.020 A 
HETATM    7  C   UNK N   1      35.332  11.472  18.244  0.00  0.00     0.039 A 
HETATM    8  C   UNK N   1      35.229  10.721  17.069  0.00  0.00     0.020 A 
HETATM    9  C   UNK N   1      34.987  11.337  15.844  0.00  0.00     0.038 A 
BRANCH   7  10
HETATM   10  C   UNK N   1      35.576  10.824  19.572  0.00  0.00     0.293 C 
HETATM   11  O   UNK N   1      36.711  10.470  19.848  0.00  0.00    -0.259 OA
BRANCH  10  12
HETATM   12  O   UNK N   1      34.597  10.615  20.502  0.00  0.00    -0.318 OA
BRANCH  12  13
HETATM   13  C   UNK N   1      34.072   9.393  20.854  0.00  0.00     0.174 C 
HETATM   14  C   UNK N   1      33.297   8.811  19.691  0.00  0.00     0.034 C 
ENDBRANCH  12  13
ENDBRANCH  10  12
ENDBRANCH   7  10
ENDBRANCH   3   4
ENDBRANCH   1   3
BRANCH   1  15
HETATM   15  C   UNK N   1      35.620  12.509  12.455  0.00  0.00     0.111 C 
BRANCH  15  16
HETATM   16  C   UNK N   1      36.973  11.817  12.418  0.00  0.00     0.010 C 
BRANCH  16  17
HETATM   17  C   UNK N   1      37.910  12.500  11.430  0.00  0.00     0.002 C 
BRANCH  17  18
HETATM   18  C   UNK N   1      37.189  12.855  10.137  0.00  0.00     0.020 C 
BRANCH  18  19
HETATM   19  C   UNK N   1      37.472  14.294   9.719  0.00  0.00     0.138 C 
BRANCH  19  20
HETATM   20  N   UNK N   1      36.864  15.223  10.639  0.00  0.00    -0.227 N 
HETATM   21  C   UNK N   1      35.692  15.956  10.319  0.00  0.00     0.665 C 
HETATM   22  N   UNK N   1      35.177  16.736  11.193  0.00  0.00    -0.235 N 
HETATM   23  N   UNK N   1      35.077  15.825   9.053  0.00  0.00    -0.235 N 
HETATM   24  H   UNK N   1      34.660  17.530  10.926  0.00  0.00     0.174 HD
ATOM     25  HN  UNK N   1      35.305  16.532  12.185  1.00  0.00     0.174 HD
HETATM   26  H   UNK N   1      35.253  15.116   8.394  0.00  0.00     0.174 HD
HETATM   27  H   UNK N   1      34.411  16.507   8.807  0.00  0.00     0.174 HD
HETATM   28  H   UNK N   1      37.278  15.354  11.523  0.00  0.00     0.177 HD
ENDBRANCH  19  20
ENDBRANCH  18  19
ENDBRANCH  17  18
ENDBRANCH  16  17
ENDBRANCH  15  16
ENDBRANCH   1  15
TORSDOF 11
ENDMDL
MODEL 6
REMARK VINA RESULT:      -5.5     15.538     18.296
REMARK  11 active torsions:
REMARK  status: ('A' for Active; 'I' for Inactive)
REMARK    1  A    between atoms: C_2  and  O_3 
REMARK    2  A    between atoms: O_3  and  C_4 
REMARK    3  A    between atoms: C_4  and  C_6 
REMARK    4  A    between atoms: C_9  and  O_12 
REMARK    5  A    between atoms: O_12  and  C_13 
REMARK    6  A    between atoms: C_13  and  C_15 
REMARK    7  A    between atoms: C_15  and  C_16 
REMARK    8  A    between atoms: C_16  and  C_17 
REMARK    9  A    between atoms: C_17  and  C_18 
REMARK   10  A    between atoms: C_18  and  C_19 
REMARK   11  A    between atoms: C_19  and  N_20 
REMARK       I    between atoms: N_20  and  C_21 
REMARK       I    between atoms: C_21  and  N_24 
ROOT
HETATM    1  C   UNK N   1      34.226  17.669   8.220  0.00  0.00     0.264 C 
HETATM    2  O   UNK N   1      34.809  18.701   7.913  0.00  0.00    -0.265 OA
ENDROOT
BRANCH   1   3
HETATM    3  O   UNK N   1      34.899  16.502   8.385  0.00  0.00    -0.279 OA
BRANCH   3   4
HETATM    4  C   UNK N   1      35.018  15.749   9.508  0.00  0.00     0.079 A 
HETATM    5  C   UNK N   1      34.535  14.433   9.603  0.00  0.00     0.038 A 
HETATM    6  C   UNK N   1      34.700  13.707  10.790  0.00  0.00     0.020 A 
HETATM    7  C   UNK N   1      35.353  14.284  11.895  0.00  0.00     0.039 A 
HETATM    8  C   UNK N   1      35.818  15.598  11.786  0.00  0.00     0.020 A 
HETATM    9  C   UNK N   1      35.651  16.323  10.610  0.00  0.00     0.038 A 
BRANCH   7  10
HETATM   10  C   UNK N   1      35.540  13.485  13.147  0.00  0.00     0.293 C 
HETATM   11  O   UNK N   1      36.672  13.173  13.476  0.00  0.00    -0.259 OA
BRANCH  10  12
HETATM   12  O   UNK N   1      34.508  13.091  13.952  0.00  0.00    -0.318 OA
BRANCH  12  13
HETATM   13  C   UNK N   1      34.567  12.104  14.909  0.00  0.00     0.174 C 
HETATM   14  C   UNK N   1      33.842  10.869  14.420  0.00  0.00     0.034 C 
ENDBRANCH  12  13
ENDBRANCH  10  12
ENDBRANCH   7  10
ENDBRANCH   3   4
ENDBRANCH   1   3
BRANCH   1  15
HETATM   15  C   UNK N   1      32.743  17.661   8.459  0.00  0.00     0.111 C 
BRANCH  15  16
HETATM   16  C   UNK N   1      31.979  16.600   7.683  0.00  0.00     0.010 C 
BRANCH  16  17
HETATM   17  C   UNK N   1      31.514  17.137   6.335  0.00  0.00     0.002 C 
BRANCH  17  18
HETATM   18  C   UNK N   1      30.185  16.520   5.921  0.00  0.00     0.020 C 
BRANCH  18  19
HETATM   19  C   UNK N   1      29.092  17.576   5.806  0.00  0.00     0.138 C 
BRANCH  19  20
HETATM   20  N   UNK N   1      28.877  18.229   7.074  0.00  0.00    -0.227 N 
HETATM   21  C   UNK N   1      27.909  17.778   8.009  0.00  0.00     0.665 C 
HETATM   22  N   UNK N   1      27.792  18.375   9.135  0.00  0.00    -0.235 N 
HETATM   23  N   UNK N   1      27.083  16.668   7.720  0.00  0.00    -0.235 N 
HETATM   24  H   UNK N   1      26.934  18.390   9.616  0.00  0.00     0.174 HD
ATOM     25  HN  UNK N   1      28.603  18.845   9.540  1.00  0.00     0.174 HD
HETATM   26  H   UNK N   1      27.223  16.014   6.997  0.00  0.00     0.174 HD
HETATM   27  H   UNK N   1      26.295  16.536   8.295  0.00  0.00     0.174 HD
HETATM   28  H   UNK N   1      29.421  19.019   7.299  0.00  0.00     0.177 HD
ENDBRANCH  19  20
ENDBRANCH  18  19
ENDBRANCH  17  18
ENDBRANCH  16  17
ENDBRANCH  15  16
ENDBRANCH   1  15
TORSDOF 11
ENDMDL
MODEL 7
REMARK VINA RESULT:      -5.4     12.313     14.612
REMARK  11 active torsions:
REMARK  status: ('A' for Active; 'I' for Inactive)
REMARK    1  A    between atoms: C_2  and  O_3 
REMARK    2  A    between atoms: O_3  and  C_4 
REMARK    3  A    between atoms: C_4  and  C_6 
REMARK    4  A    between atoms: C_9  and  O_12 
REMARK    5  A    between atoms: O_12  and  C_13 
REMARK    6  A    between atoms: C_13  and  C_15 
REMARK    7  A    between atoms: C_15  and  C_16 
REMARK    8  A    between atoms: C_16  and  C_17 
REMARK    9  A    between atoms: C_17  and  C_18 
REMARK   10  A    between atoms: C_18  and  C_19 
REMARK   11  A    between atoms: C_19  and  N_20 
REMARK       I    between atoms: N_20  and  C_21 
REMARK       I    between atoms: C_21  and  N_24 
ROOT
HETATM    1  C   UNK N   1      34.152  18.080   8.034  0.00  0.00     0.264 C 
HETATM    2  O   UNK N   1      34.971  18.241   8.929  0.00  0.00    -0.265 OA
ENDROOT
BRANCH   1   3
HETATM    3  O   UNK N   1      34.537  17.981   6.736  0.00  0.00    -0.279 OA
BRANCH   3   4
HETATM    4  C   UNK N   1      34.067  17.141   5.779  0.00  0.00     0.079 A 
HETATM    5  C   UNK N   1      33.185  17.552   4.765  0.00  0.00     0.038 A 
HETATM    6  C   UNK N   1      32.745  16.636   3.801  0.00  0.00     0.020 A 
HETATM    7  C   UNK N   1      33.185  15.300   3.833  0.00  0.00     0.039 A 
HETATM    8  C   UNK N   1      34.055  14.906   4.855  0.00  0.00     0.020 A 
HETATM    9  C   UNK N   1      34.489  15.813   5.817  0.00  0.00     0.038 A 
BRANCH   7  10
HETATM   10  C   UNK N   1      32.722  14.340   2.782  0.00  0.00     0.293 C 
HETATM   11  O   UNK N   1      33.495  14.037   1.888  0.00  0.00    -0.259 OA
BRANCH  10  12
HETATM   12  O   UNK N   1      31.478  13.774   2.770  0.00  0.00    -0.318 OA
BRANCH  12  13
HETATM   13  C   UNK N   1      30.708  13.505   3.878  0.00  0.00     0.174 C 
HETATM   14  C   UNK N   1      29.613  14.543   4.007  0.00  0.00     0.034 C 
ENDBRANCH  12  13
ENDBRANCH  10  12
ENDBRANCH   7  10
ENDBRANCH   3   4
ENDBRANCH   1   3
BRANCH   1  15
HETATM   15  C   UNK N   1      32.687  17.952   8.340  0.00  0.00     0.111 C 
BRANCH  15  16
HETATM   16  C   UNK N   1      32.215  16.532   8.612  0.00  0.00     0.010 C 
BRANCH  16  17
HETATM   17  C   UNK N   1      31.032  16.170   7.723  0.00  0.00     0.002 C 
BRANCH  17  18
HETATM   18  C   UNK N   1      30.460  17.399   7.031  0.00  0.00     0.020 C 
BRANCH  18  19
HETATM   19  C   UNK N   1      29.020  17.169   6.588  0.00  0.00     0.138 C 
BRANCH  19  20
HETATM   20  N   UNK N   1      28.308  18.419   6.492  0.00  0.00    -0.227 N 
HETATM   21  C   UNK N   1      28.044  19.053   5.250  0.00  0.00     0.665 C 
HETATM   22  N   UNK N   1      27.372  20.142   5.227  0.00  0.00    -0.235 N 
HETATM   23  N   UNK N   1      28.500  18.490   4.036  0.00  0.00    -0.235 N 
HETATM   24  H   UNK N   1      27.503  20.806   4.512  0.00  0.00     0.174 HD
ATOM     25  HN  UNK N   1      26.688  20.325   5.962  1.00  0.00     0.174 HD
HETATM   26  H   UNK N   1      28.833  17.571   3.913  0.00  0.00     0.174 HD
HETATM   27  H   UNK N   1      28.484  19.070   3.241  0.00  0.00     0.174 HD
HETATM   28  H   UNK N   1      27.994  18.850   7.320  0.00  0.00     0.177 HD
ENDBRANCH  19  20
ENDBRANCH  18  19
ENDBRANCH  17  18
ENDBRANCH  16  17
ENDBRANCH  15  16
ENDBRANCH   1  15
TORSDOF 11
ENDMDL
MODEL 8
REMARK VINA RESULT:      -5.3     10.022     12.127
REMARK  11 active torsions:
REMARK  status: ('A' for Active; 'I' for Inactive)
REMARK    1  A    between atoms: C_2  and  O_3 
REMARK    2  A    between atoms: O_3  and  C_4 
REMARK    3  A    between atoms: C_4  and  C_6 
REMARK    4  A    between atoms: C_9  and  O_12 
REMARK    5  A    between atoms: O_12  and  C_13 
REMARK    6  A    between atoms: C_13  and  C_15 
REMARK    7  A    between atoms: C_15  and  C_16 
REMARK    8  A    between atoms: C_16  and  C_17 
REMARK    9  A    between atoms: C_17  and  C_18 
REMARK   10  A    between atoms: C_18  and  C_19 
REMARK   11  A    between atoms: C_19  and  N_20 
REMARK       I    between atoms: N_20  and  C_21 
REMARK       I    between atoms: C_21  and  N_24 
ROOT
HETATM    1  C   UNK N   1      27.198  18.581   4.193  0.00  0.00     0.264 C 
HETATM    2  O   UNK N   1      26.763  17.488   3.859  0.00  0.00    -0.265 OA
ENDROOT
BRANCH   1   3
HETATM    3  O   UNK N   1      28.523  18.773   4.424  0.00  0.00    -0.279 OA
BRANCH   3   4
HETATM    4  C   UNK N   1      29.367  18.016   5.169  0.00  0.00     0.079 A 
HETATM    5  C   UNK N   1      29.118  17.688   6.514  0.00  0.00     0.038 A 
HETATM    6  C   UNK N   1      30.028  16.894   7.224  0.00  0.00     0.020 A 
HETATM    7  C   UNK N   1      31.194  16.413   6.600  0.00  0.00     0.039 A 
HETATM    8  C   UNK N   1      31.430  16.757   5.266  0.00  0.00     0.020 A 
HETATM    9  C   UNK N   1      30.531  17.551   4.560  0.00  0.00     0.038 A 
BRANCH   7  10
HETATM   10  C   UNK N   1      32.143  15.547   7.369  0.00  0.00     0.293 C 
HETATM   11  O   UNK N   1      31.827  14.390   7.591  0.00  0.00    -0.259 OA
BRANCH  10  12
HETATM   12  O   UNK N   1      33.355  15.979   7.830  0.00  0.00    -0.318 OA
BRANCH  12  13
HETATM   13  C   UNK N   1      33.553  16.982   8.750  0.00  0.00     0.174 C 
HETATM   14  C   UNK N   1      34.075  18.222   8.055  0.00  0.00     0.034 C 
ENDBRANCH  12  13
ENDBRANCH  10  12
ENDBRANCH   7  10
ENDBRANCH   3   4
ENDBRANCH   1   3
BRANCH   1  15
HETATM   15  C   UNK N   1      26.287  19.768   4.330  0.00  0.00     0.111 C 
BRANCH  15  16
HETATM   16  C   UNK N   1      25.768  20.325   3.014  0.00  0.00     0.010 C 
BRANCH  16  17
HETATM   17  C   UNK N   1      24.261  20.545   3.070  0.00  0.00     0.002 C 
BRANCH  17  18
HETATM   18  C   UNK N   1      23.547  19.345   3.677  0.00  0.00     0.020 C 
BRANCH  18  19
HETATM   19  C   UNK N   1      22.048  19.396   3.410  0.00  0.00     0.138 C 
BRANCH  19  20
HETATM   20  N   UNK N   1      21.745  20.340   2.363  0.00  0.00    -0.227 N 
HETATM   21  C   UNK N   1      20.837  20.047   1.312  0.00  0.00     0.665 C 
HETATM   22  N   UNK N   1      20.579  20.941   0.433  0.00  0.00    -0.235 N 
HETATM   23  N   UNK N   1      20.200  18.788   1.233  0.00  0.00    -0.235 N 
HETATM   24  H   UNK N   1      20.314  20.694  -0.482  0.00  0.00     0.174 HD
ATOM     25  HN  UNK N   1      20.649  21.928   0.685  1.00  0.00     0.174 HD
HETATM   26  H   UNK N   1      20.156  18.114   1.949  0.00  0.00     0.174 HD
HETATM   27  H   UNK N   1      19.761  18.562   0.381  0.00  0.00     0.174 HD
HETATM   28  H   UNK N   1      22.187  21.220   2.376  0.00  0.00     0.177 HD
ENDBRANCH  19  20
ENDBRANCH  18  19
ENDBRANCH  17  18
ENDBRANCH  16  17
ENDBRANCH  15  16
ENDBRANCH   1  15
TORSDOF 11
ENDMDL
MODEL 9
REMARK VINA RESULT:      -5.3      3.212      4.643
REMARK  11 active torsions:
REMARK  status: ('A' for Active; 'I' for Inactive)
REMARK    1  A    between atoms: C_2  and  O_3 
REMARK    2  A    between atoms: O_3  and  C_4 
REMARK    3  A    between atoms: C_4  and  C_6 
REMARK    4  A    between atoms: C_9  and  O_12 
REMARK    5  A    between atoms: O_12  and  C_13 
REMARK    6  A    between atoms: C_13  and  C_15 
REMARK    7  A    between atoms: C_15  and  C_16 
REMARK    8  A    between atoms: C_16  and  C_17 
REMARK    9  A    between atoms: C_17  and  C_18 
REMARK   10  A    between atoms: C_18  and  C_19 
REMARK   11  A    between atoms: C_19  and  N_20 
REMARK       I    between atoms: N_20  and  C_21 
REMARK       I    between atoms: C_21  and  N_24 
ROOT
HETATM    1  C   UNK N   1      25.754  23.735  -8.124  0.00  0.00     0.264 C 
HETATM    2  O   UNK N   1      24.642  23.618  -8.621  0.00  0.00    -0.265 OA
ENDROOT
BRANCH   1   3
HETATM    3  O   UNK N   1      26.171  22.913  -7.128  0.00  0.00    -0.279 OA
BRANCH   3   4
HETATM    4  C   UNK N   1      27.104  23.152  -6.172  0.00  0.00     0.079 A 
HETATM    5  C   UNK N   1      28.429  22.692  -6.262  0.00  0.00     0.038 A 
HETATM    6  C   UNK N   1      29.346  22.983  -5.243  0.00  0.00     0.020 A 
HETATM    7  C   UNK N   1      28.953  23.740  -4.125  0.00  0.00     0.039 A 
HETATM    8  C   UNK N   1      27.628  24.182  -4.046  0.00  0.00     0.020 A 
HETATM    9  C   UNK N   1      26.714  23.889  -5.055  0.00  0.00     0.038 A 
BRANCH   7  10
HETATM   10  C   UNK N   1      29.952  24.060  -3.056  0.00  0.00     0.293 C 
HETATM   11  O   UNK N   1      29.932  23.407  -2.026  0.00  0.00    -0.259 OA
BRANCH  10  12
HETATM   12  O   UNK N   1      30.897  25.040  -3.174  0.00  0.00    -0.318 OA
BRANCH  12  13
HETATM   13  C   UNK N   1      30.652  26.360  -3.471  0.00  0.00     0.174 C 
HETATM   14  C   UNK N   1      31.676  26.863  -4.466  0.00  0.00     0.034 C 
ENDBRANCH  12  13
ENDBRANCH  10  12
ENDBRANCH   7  10
ENDBRANCH   3   4
ENDBRANCH   1   3
BRANCH   1  15
HETATM   15  C   UNK N   1      26.718  24.774  -8.622  0.00  0.00     0.111 C 
BRANCH  15  16
HETATM   16  C   UNK N   1      26.222  26.207  -8.510  0.00  0.00     0.010 C 
BRANCH  16  17
HETATM   17  C   UNK N   1      26.441  26.754  -7.104  0.00  0.00     0.002 C 
BRANCH  17  18
HETATM   18  C   UNK N   1      27.450  27.893  -7.103  0.00  0.00     0.020 C 
BRANCH  18  19
HETATM   19  C   UNK N   1      27.423  28.659  -5.785  0.00  0.00     0.138 C 
BRANCH  19  20
HETATM   20  N   UNK N   1      27.047  27.791  -4.696  0.00  0.00    -0.227 N 
HETATM   21  C   UNK N   1      26.353  28.262  -3.551  0.00  0.00     0.665 C 
HETATM   22  N   UNK N   1      26.011  27.435  -2.636  0.00  0.00    -0.235 N 
HETATM   23  N   UNK N   1      26.020  29.628  -3.415  0.00  0.00    -0.235 N 
HETATM   24  H   UNK N   1      25.916  27.723  -1.700  0.00  0.00     0.174 HD
ATOM     25  HN  UNK N   1      25.835  26.460  -2.881  1.00  0.00     0.174 HD
HETATM   26  H   UNK N   1      26.040  30.304  -4.131  0.00  0.00     0.174 HD
HETATM   27  H   UNK N   1      25.743  29.934  -2.521  0.00  0.00     0.174 HD
HETATM   28  H   UNK N   1      27.282  26.836  -4.749  0.00  0.00     0.177 HD
ENDBRANCH  19  20
ENDBRANCH  18  19
ENDBRANCH  17  18
ENDBRANCH  16  17
ENDBRANCH  15  16
ENDBRANCH   1  15
TORSDOF 11
ENDMDL
