MODEL 1
REMARK VINA RESULT:      -8.1      0.000      0.000
REMARK  4 active torsions:
REMARK  status: ('A' for Active; 'I' for Inactive)
REMARK    1  A    between atoms: C_17  and  C_16 
REMARK    2  A    between atoms: N_34  and  C_16 
REMARK    3  A    between atoms: N_32  and  C_19 
REMARK    4  A    between atoms: O_35  and  C_22 
REMARK       I    between atoms: N_32  and  C_23 
REMARK       I    between atoms: N_33  and  C_24 
ROOT
HETATM    1  C   UNK N   1      32.429  15.488   6.206  0.00  0.00     0.002 A 
HETATM    2  C   UNK N   1      32.417  16.792   5.655  0.00  0.00     0.002 A 
HETATM    3  C   UNK N   1      31.288  14.667   6.120  0.00  0.00     0.032 A 
HETATM    4  C   UNK N   1      31.268  17.283   5.006  0.00  0.00     0.032 A 
HETATM    5  C   UNK N   1      25.212  16.822   5.315  0.00  0.00     0.046 C 
HETATM    6  C   UNK N   1      25.566  16.707   2.736  0.00  0.00     0.046 C 
HETATM    7  C   UNK N   1      25.952  15.487   5.425  0.00  0.00     0.143 C 
HETATM    8  C   UNK N   1      26.388  15.443   2.972  0.00  0.00     0.143 C 
HETATM    9  C   UNK N   1      24.628  17.002   3.907  0.00  0.00     0.104 C 
HETATM   10  C   UNK N   1      30.176  15.181   5.463  0.00  0.00     0.076 A 
HETATM   11  C   UNK N   1      30.166  16.435   4.920  0.00  0.00     0.079 A 
HETATM   12  C   UNK N   1      28.258  15.526   4.612  0.00  0.00     0.683 A 
HETATM   13  N   UNK N   1      28.974  14.599   5.299  0.00  0.00    -0.189 N 
ATOM     14  HN  UNK N   1      28.672  13.678   5.616  1.00  0.00     0.184 HD
HETATM   15  N   UNK N   1      26.881  15.385   4.332  0.00  0.00    -0.217 N 
HETATM   16  N   UNK N   1      28.957  16.662   4.377  0.00  0.00    -0.177 N 
ENDROOT
BRANCH  16  17
HETATM   17  C   UNK N   1      28.416  17.900   3.812  0.00  0.00     0.186 C 
BRANCH  17  18
HETATM   18  C   UNK N   1      27.931  18.928   4.790  0.00  0.00    -0.039 A 
HETATM   19  C   UNK N   1      28.175  18.842   6.169  0.00  0.00     0.012 A 
HETATM   20  C   UNK N   1      27.634  19.796   7.037  0.00  0.00     0.043 A 
HETATM   21  C   UNK N   1      26.853  20.839   6.531  0.00  0.00     0.116 A 
HETATM   22  C   UNK N   1      26.624  20.937   5.158  0.00  0.00     0.043 A 
HETATM   23  F   UNK N   1      26.313  21.754   7.372  0.00  0.00    -0.206 F 
HETATM   24  C   UNK N   1      27.160  19.984   4.292  0.00  0.00     0.012 A 
ENDBRANCH  17  18
ENDBRANCH  16  17
BRANCH   9  25
HETATM   25  N   UNK N   1      23.229  16.654   3.712  0.00  0.00    -0.217 N 
HETATM   26  C   UNK N   1      22.913  15.258   3.536  0.00  0.00     0.169 C 
HETATM   27  C   UNK N   1      22.224  17.632   3.438  0.00  0.00     0.682 A 
HETATM   28  N   UNK N   1      22.430  18.944   3.737  0.00  0.00    -0.202 N 
HETATM   29  N   UNK N   1      21.062  17.262   2.830  0.00  0.00    -0.171 N 
HETATM   30  C   UNK N   1      21.506  19.892   3.438  0.00  0.00     0.110 A 
ATOM     31  HN  UNK N   1      23.297  19.221   4.196  1.00  0.00     0.183 HD
HETATM   32  C   UNK N   1      20.326  19.529   2.797  0.00  0.00     0.074 A 
HETATM   33  C   UNK N   1      20.121  18.186   2.497  0.00  0.00     0.156 A 
ATOM     34  HN  UNK N   1      20.896  16.278   2.620  1.00  0.00     0.186 HD
BRANCH  33  35
HETATM   35  O   UNK N   1      19.001  17.803   1.864  0.00  0.00    -0.346 OA
HETATM   36  H   UNK N   1      18.444  18.439   1.459  0.00  0.00     0.219 HD
ENDBRANCH  33  35
ENDBRANCH   9  25
TORSDOF 4
ENDMDL
MODEL 2
REMARK VINA RESULT:      -7.8      9.686     13.713
REMARK  4 active torsions:
REMARK  status: ('A' for Active; 'I' for Inactive)
REMARK    1  A    between atoms: C_17  and  C_16 
REMARK    2  A    between atoms: N_34  and  C_16 
REMARK    3  A    between atoms: N_32  and  C_19 
REMARK    4  A    between atoms: O_35  and  C_22 
REMARK       I    between atoms: N_32  and  C_23 
REMARK       I    between atoms: N_33  and  C_24 
ROOT
HETATM    1  C   UNK N   1      36.399   7.323  15.689  0.00  0.00     0.002 A 
HETATM    2  C   UNK N   1      35.660   8.313  16.380  0.00  0.00     0.002 A 
HETATM    3  C   UNK N   1      36.911   7.583  14.403  0.00  0.00     0.032 A 
HETATM    4  C   UNK N   1      35.433   9.573  15.795  0.00  0.00     0.032 A 
HETATM    5  C   UNK N   1      34.580  12.060  10.312  0.00  0.00     0.046 C 
HETATM    6  C   UNK N   1      36.197  13.803  11.377  0.00  0.00     0.046 C 
HETATM    7  C   UNK N   1      35.720  11.041  10.372  0.00  0.00     0.143 C 
HETATM    8  C   UNK N   1      37.223  12.680  11.496  0.00  0.00     0.143 C 
HETATM    9  C   UNK N   1      35.133  13.491  10.325  0.00  0.00     0.104 C 
HETATM   10  C   UNK N   1      36.677   8.842  13.862  0.00  0.00     0.076 A 
HETATM   11  C   UNK N   1      35.974   9.804  14.533  0.00  0.00     0.079 A 
HETATM   12  C   UNK N   1      36.550  10.565  12.621  0.00  0.00     0.683 A 
HETATM   13  N   UNK N   1      37.030   9.295  12.645  0.00  0.00    -0.189 N 
ATOM     14  HN  UNK N   1      37.540   8.801  11.913  1.00  0.00     0.184 HD
HETATM   15  N   UNK N   1      36.584  11.381  11.470  0.00  0.00    -0.217 N 
HETATM   16  N   UNK N   1      35.889  10.898  13.757  0.00  0.00    -0.177 N 
ENDROOT
BRANCH  16  17
HETATM   17  C   UNK N   1      35.120  12.125  13.971  0.00  0.00     0.186 C 
BRANCH  17  18
HETATM   18  C   UNK N   1      35.545  12.993  15.117  0.00  0.00    -0.039 A 
HETATM   19  C   UNK N   1      34.870  13.014  16.346  0.00  0.00     0.012 A 
HETATM   20  C   UNK N   1      35.272  13.899  17.351  0.00  0.00     0.043 A 
HETATM   21  C   UNK N   1      36.350  14.763  17.133  0.00  0.00     0.116 A 
HETATM   22  C   UNK N   1      37.034  14.732  15.917  0.00  0.00     0.043 A 
HETATM   23  F   UNK N   1      36.730  15.634  18.099  0.00  0.00    -0.206 F 
HETATM   24  C   UNK N   1      36.631  13.851  14.913  0.00  0.00     0.012 A 
ENDBRANCH  17  18
ENDBRANCH  16  17
BRANCH   9  25
HETATM   25  N   UNK N   1      35.281  14.164   9.043  0.00  0.00    -0.217 N 
HETATM   26  C   UNK N   1      36.535  14.000   8.351  0.00  0.00     0.169 C 
HETATM   27  C   UNK N   1      34.361  15.157   8.584  0.00  0.00     0.682 A 
HETATM   28  N   UNK N   1      33.108  15.240   9.109  0.00  0.00    -0.202 N 
HETATM   29  N   UNK N   1      34.750  16.061   7.643  0.00  0.00    -0.171 N 
HETATM   30  C   UNK N   1      32.240  16.207   8.720  0.00  0.00     0.110 A 
ATOM     31  HN  UNK N   1      32.815  14.560   9.811  1.00  0.00     0.183 HD
HETATM   32  C   UNK N   1      32.633  17.149   7.776  0.00  0.00     0.074 A 
HETATM   33  C   UNK N   1      33.915  17.057   7.241  0.00  0.00     0.156 A 
ATOM     34  HN  UNK N   1      35.682  15.992   7.233  1.00  0.00     0.186 HD
BRANCH  33  35
HETATM   35  O   UNK N   1      34.332  17.960   6.341  0.00  0.00    -0.346 OA
HETATM   36  H   UNK N   1      33.811  18.155   5.587  0.00  0.00     0.219 HD
ENDBRANCH  33  35
ENDBRANCH   9  25
TORSDOF 4
ENDMDL
MODEL 3
REMARK VINA RESULT:      -7.8      4.794      7.001
REMARK  4 active torsions:
REMARK  status: ('A' for Active; 'I' for Inactive)
REMARK    1  A    between atoms: C_17  and  C_16 
REMARK    2  A    between atoms: N_34  and  C_16 
REMARK    3  A    between atoms: N_32  and  C_19 
REMARK    4  A    between atoms: O_35  and  C_22 
REMARK       I    between atoms: N_32  and  C_23 
REMARK       I    between atoms: N_33  and  C_24 
ROOT
HETATM    1  C   UNK N   1      23.141  11.931  11.721  0.00  0.00     0.002 A 
HETATM    2  C   UNK N   1      24.398  12.179  11.118  0.00  0.00     0.002 A 
HETATM    3  C   UNK N   1      21.951  12.310  11.070  0.00  0.00     0.032 A 
HETATM    4  C   UNK N   1      24.475  12.800   9.856  0.00  0.00     0.032 A 
HETATM    5  C   UNK N   1      21.509  16.939   6.533  0.00  0.00     0.046 C 
HETATM    6  C   UNK N   1      22.001  15.137   4.717  0.00  0.00     0.046 C 
HETATM    7  C   UNK N   1      20.602  15.920   7.226  0.00  0.00     0.143 C 
HETATM    8  C   UNK N   1      21.169  14.166   5.550  0.00  0.00     0.143 C 
HETATM    9  C   UNK N   1      21.674  16.593   5.047  0.00  0.00     0.104 C 
HETATM   10  C   UNK N   1      22.066  12.910   9.822  0.00  0.00     0.076 A 
HETATM   11  C   UNK N   1      23.277  13.140   9.232  0.00  0.00     0.079 A 
HETATM   12  C   UNK N   1      21.730  13.878   7.958  0.00  0.00     0.683 A 
HETATM   13  N   UNK N   1      21.077  13.389   9.043  0.00  0.00    -0.189 N 
ATOM     14  HN  UNK N   1      20.074  13.385   9.226  1.00  0.00     0.184 HD
HETATM   15  N   UNK N   1      21.084  14.598   6.929  0.00  0.00    -0.217 N 
HETATM   16  N   UNK N   1      23.076  13.750   8.051  0.00  0.00    -0.177 N 
ENDROOT
BRANCH  16  17
HETATM   17  C   UNK N   1      24.057  14.325   7.129  0.00  0.00     0.186 C 
BRANCH  17  18
HETATM   18  C   UNK N   1      24.811  13.360   6.264  0.00  0.00    -0.039 A 
HETATM   19  C   UNK N   1      24.312  12.094   5.923  0.00  0.00     0.012 A 
HETATM   20  C   UNK N   1      25.095  11.211   5.172  0.00  0.00     0.043 A 
HETATM   21  C   UNK N   1      26.376  11.591   4.758  0.00  0.00     0.116 A 
HETATM   22  C   UNK N   1      26.867  12.857   5.081  0.00  0.00     0.043 A 
HETATM   23  F   UNK N   1      27.144  10.731   4.047  0.00  0.00    -0.206 F 
HETATM   24  C   UNK N   1      26.087  13.736   5.833  0.00  0.00     0.012 A 
ENDBRANCH  17  18
ENDBRANCH  16  17
BRANCH   9  25
HETATM   25  N   UNK N   1      20.818  17.289   4.098  0.00  0.00    -0.217 N 
HETATM   26  C   UNK N   1      19.592  16.638   3.711  0.00  0.00     0.169 C 
HETATM   27  C   UNK N   1      21.258  18.434   3.362  0.00  0.00     0.682 A 
HETATM   28  N   UNK N   1      22.323  19.168   3.788  0.00  0.00    -0.202 N 
HETATM   29  N   UNK N   1      20.637  18.774   2.199  0.00  0.00    -0.171 N 
HETATM   30  C   UNK N   1      22.782  20.226   3.075  0.00  0.00     0.110 A 
ATOM     31  HN  UNK N   1      22.785  18.916   4.661  1.00  0.00     0.183 HD
HETATM   32  C   UNK N   1      22.170  20.570   1.874  0.00  0.00     0.074 A 
HETATM   33  C   UNK N   1      21.080  19.817   1.447  0.00  0.00     0.156 A 
ATOM     34  HN  UNK N   1      19.827  18.238   1.885  1.00  0.00     0.186 HD
BRANCH  33  35
HETATM   35  O   UNK N   1      20.477  20.111   0.285  0.00  0.00    -0.346 OA
HETATM   36  H   UNK N   1      20.551  20.969  -0.085  0.00  0.00     0.219 HD
ENDBRANCH  33  35
ENDBRANCH   9  25
TORSDOF 4
ENDMDL
MODEL 4
REMARK VINA RESULT:      -7.6      4.264      6.716
REMARK  4 active torsions:
REMARK  status: ('A' for Active; 'I' for Inactive)
REMARK    1  A    between atoms: C_17  and  C_16 
REMARK    2  A    between atoms: N_34  and  C_16 
REMARK    3  A    between atoms: N_32  and  C_19 
REMARK    4  A    between atoms: O_35  and  C_22 
REMARK       I    between atoms: N_32  and  C_23 
REMARK       I    between atoms: N_33  and  C_24 
ROOT
HETATM    1  C   UNK N   1      22.086  12.470  10.730  0.00  0.00     0.002 A 
HETATM    2  C   UNK N   1      23.054  11.857   9.898  0.00  0.00     0.002 A 
HETATM    3  C   UNK N   1      21.105  13.316  10.179  0.00  0.00     0.032 A 
HETATM    4  C   UNK N   1      23.044  12.078   8.507  0.00  0.00     0.032 A 
HETATM    5  C   UNK N   1      21.656  16.450   4.515  0.00  0.00     0.046 C 
HETATM    6  C   UNK N   1      20.627  14.375   3.322  0.00  0.00     0.046 C 
HETATM    7  C   UNK N   1      20.623  16.261   5.627  0.00  0.00     0.143 C 
HETATM    8  C   UNK N   1      19.720  14.210   4.539  0.00  0.00     0.143 C 
HETATM    9  C   UNK N   1      21.175  15.797   3.212  0.00  0.00     0.104 C 
HETATM   10  C   UNK N   1      21.119  13.502   8.801  0.00  0.00     0.076 A 
HETATM   11  C   UNK N   1      22.044  12.902   7.994  0.00  0.00     0.079 A 
HETATM   12  C   UNK N   1      20.760  14.120   6.798  0.00  0.00     0.683 A 
HETATM   13  N   UNK N   1      20.313  14.292   8.068  0.00  0.00    -0.189 N 
ATOM     14  HN  UNK N   1      19.546  14.882   8.391  1.00  0.00     0.184 HD
HETATM   15  N   UNK N   1      20.278  14.867   5.702  0.00  0.00    -0.217 N 
HETATM   16  N   UNK N   1      21.825  13.285   6.724  0.00  0.00    -0.177 N 
ENDROOT
BRANCH  16  17
HETATM   17  C   UNK N   1      22.632  13.030   5.530  0.00  0.00     0.186 C 
BRANCH  17  18
HETATM   18  C   UNK N   1      23.812  13.929   5.311  0.00  0.00    -0.039 A 
HETATM   19  C   UNK N   1      24.334  14.756   6.317  0.00  0.00     0.012 A 
HETATM   20  C   UNK N   1      25.392  15.625   6.030  0.00  0.00     0.043 A 
HETATM   21  C   UNK N   1      25.932  15.669   4.741  0.00  0.00     0.116 A 
HETATM   22  C   UNK N   1      25.425  14.834   3.743  0.00  0.00     0.043 A 
HETATM   23  F   UNK N   1      26.944  16.523   4.456  0.00  0.00    -0.206 F 
HETATM   24  C   UNK N   1      24.368  13.969   4.029  0.00  0.00     0.012 A 
ENDBRANCH  17  18
ENDBRANCH  16  17
BRANCH   9  25
HETATM   25  N   UNK N   1      20.533  16.658   2.229  0.00  0.00    -0.217 N 
HETATM   26  C   UNK N   1      19.935  16.021   1.083  0.00  0.00     0.169 C 
HETATM   27  C   UNK N   1      20.696  18.078   2.227  0.00  0.00     0.682 A 
HETATM   28  N   UNK N   1      21.111  18.732   3.346  0.00  0.00    -0.202 N 
HETATM   29  N   UNK N   1      20.477  18.786   1.084  0.00  0.00    -0.171 N 
HETATM   30  C   UNK N   1      21.318  20.073   3.347  0.00  0.00     0.110 A 
ATOM     31  HN  UNK N   1      21.271  18.203   4.204  1.00  0.00     0.183 HD
HETATM   32  C   UNK N   1      21.119  20.803   2.180  0.00  0.00     0.074 A 
HETATM   33  C   UNK N   1      20.692  20.128   1.041  0.00  0.00     0.156 A 
ATOM     34  HN  UNK N   1      20.148  18.303   0.248  1.00  0.00     0.186 HD
BRANCH  33  35
HETATM   35  O   UNK N   1      20.507  20.800  -0.107  0.00  0.00    -0.346 OA
HETATM   36  H   UNK N   1      19.765  20.616  -0.650  0.00  0.00     0.219 HD
ENDBRANCH  33  35
ENDBRANCH   9  25
TORSDOF 4
ENDMDL
MODEL 5
REMARK VINA RESULT:      -7.6      4.904      7.040
REMARK  4 active torsions:
REMARK  status: ('A' for Active; 'I' for Inactive)
REMARK    1  A    between atoms: C_17  and  C_16 
REMARK    2  A    between atoms: N_34  and  C_16 
REMARK    3  A    between atoms: N_32  and  C_19 
REMARK    4  A    between atoms: O_35  and  C_22 
REMARK       I    between atoms: N_32  and  C_23 
REMARK       I    between atoms: N_33  and  C_24 
ROOT
HETATM    1  C   UNK N   1      24.766   7.895   5.982  0.00  0.00     0.002 A 
HETATM    2  C   UNK N   1      23.888   8.238   7.038  0.00  0.00     0.002 A 
HETATM    3  C   UNK N   1      25.295   8.892   5.140  0.00  0.00     0.032 A 
HETATM    4  C   UNK N   1      23.539   9.583   7.268  0.00  0.00     0.032 A 
HETATM    5  C   UNK N   1      22.621  14.733   4.168  0.00  0.00     0.046 C 
HETATM    6  C   UNK N   1      23.978  15.638   6.199  0.00  0.00     0.046 C 
HETATM    7  C   UNK N   1      23.869  13.957   3.744  0.00  0.00     0.143 C 
HETATM    8  C   UNK N   1      25.124  14.734   5.752  0.00  0.00     0.143 C 
HETATM    9  C   UNK N   1      23.001  15.923   5.059  0.00  0.00     0.104 C 
HETATM   10  C   UNK N   1      24.937  10.210   5.404  0.00  0.00     0.076 A 
HETATM   11  C   UNK N   1      24.100  10.545   6.431  0.00  0.00     0.079 A 
HETATM   12  C   UNK N   1      24.658  12.318   5.378  0.00  0.00     0.683 A 
HETATM   13  N   UNK N   1      25.283  11.312   4.714  0.00  0.00    -0.189 N 
ATOM     14  HN  UNK N   1      25.875  11.376   3.886  1.00  0.00     0.184 HD
HETATM   15  N   UNK N   1      24.642  13.652   4.918  0.00  0.00    -0.217 N 
HETATM   16  N   UNK N   1      23.918  11.877   6.424  0.00  0.00    -0.177 N 
ENDROOT
BRANCH  16  17
HETATM   17  C   UNK N   1      23.002  12.690   7.227  0.00  0.00     0.186 C 
BRANCH  17  18
HETATM   18  C   UNK N   1      23.102  12.541   8.716  0.00  0.00    -0.039 A 
HETATM   19  C   UNK N   1      24.329  12.495   9.395  0.00  0.00     0.012 A 
HETATM   20  C   UNK N   1      24.357  12.283  10.777  0.00  0.00     0.043 A 
HETATM   21  C   UNK N   1      23.162  12.120  11.484  0.00  0.00     0.116 A 
HETATM   22  C   UNK N   1      21.940  12.183  10.813  0.00  0.00     0.043 A 
HETATM   23  F   UNK N   1      23.188  11.896  12.820  0.00  0.00    -0.206 F 
HETATM   24  C   UNK N   1      21.912  12.391   9.434  0.00  0.00     0.012 A 
ENDBRANCH  17  18
ENDBRANCH  16  17
BRANCH   9  25
HETATM   25  N   UNK N   1      23.121  17.226   4.422  0.00  0.00    -0.217 N 
HETATM   26  C   UNK N   1      24.359  17.941   4.605  0.00  0.00     0.169 C 
HETATM   27  C   UNK N   1      22.001  17.913   3.859  0.00  0.00     0.682 A 
HETATM   28  N   UNK N   1      20.866  17.238   3.527  0.00  0.00    -0.202 N 
HETATM   29  N   UNK N   1      22.046  19.264   3.690  0.00  0.00    -0.171 N 
HETATM   30  C   UNK N   1      19.777  17.883   3.038  0.00  0.00     0.110 A 
ATOM     31  HN  UNK N   1      20.834  16.226   3.649  1.00  0.00     0.183 HD
HETATM   32  C   UNK N   1      19.803  19.264   2.882  0.00  0.00     0.074 A 
HETATM   33  C   UNK N   1      20.968  19.947   3.221  0.00  0.00     0.156 A 
ATOM     34  HN  UNK N   1      22.900  19.771   3.921  1.00  0.00     0.186 HD
BRANCH  33  35
HETATM   35  O   UNK N   1      21.021  21.282   3.099  0.00  0.00    -0.346 OA
HETATM   36  H   UNK N   1      20.313  21.816   3.402  0.00  0.00     0.219 HD
ENDBRANCH  33  35
ENDBRANCH   9  25
TORSDOF 4
ENDMDL
MODEL 6
REMARK VINA RESULT:      -7.6      4.044      8.158
REMARK  4 active torsions:
REMARK  status: ('A' for Active; 'I' for Inactive)
REMARK    1  A    between atoms: C_17  and  C_16 
REMARK    2  A    between atoms: N_34  and  C_16 
REMARK    3  A    between atoms: N_32  and  C_19 
REMARK    4  A    between atoms: O_35  and  C_22 
REMARK       I    between atoms: N_32  and  C_23 
REMARK       I    between atoms: N_33  and  C_24 
ROOT
HETATM    1  C   UNK N   1      20.491  14.556   0.829  0.00  0.00     0.002 A 
HETATM    2  C   UNK N   1      19.964  15.406   1.831  0.00  0.00     0.002 A 
HETATM    3  C   UNK N   1      21.848  14.181   0.851  0.00  0.00     0.032 A 
HETATM    4  C   UNK N   1      20.789  15.883   2.868  0.00  0.00     0.032 A 
HETATM    5  C   UNK N   1      26.570  17.508   3.826  0.00  0.00     0.046 C 
HETATM    6  C   UNK N   1      26.094  16.147   5.996  0.00  0.00     0.046 C 
HETATM    7  C   UNK N   1      26.403  16.210   3.035  0.00  0.00     0.143 C 
HETATM    8  C   UNK N   1      25.834  14.938   5.101  0.00  0.00     0.143 C 
HETATM    9  C   UNK N   1      26.934  17.209   5.287  0.00  0.00     0.104 C 
HETATM   10  C   UNK N   1      22.628  14.662   1.897  0.00  0.00     0.076 A 
HETATM   11  C   UNK N   1      22.120  15.474   2.872  0.00  0.00     0.079 A 
HETATM   12  C   UNK N   1      24.202  15.165   3.236  0.00  0.00     0.683 A 
HETATM   13  N   UNK N   1      23.946  14.473   2.096  0.00  0.00    -0.189 N 
ATOM     14  HN  UNK N   1      24.598  13.936   1.525  1.00  0.00     0.184 HD
HETATM   15  N   UNK N   1      25.503  15.346   3.752  0.00  0.00    -0.217 N 
HETATM   16  N   UNK N   1      23.107  15.796   3.725  0.00  0.00    -0.177 N 
ENDROOT
BRANCH  16  17
HETATM   17  C   UNK N   1      23.094  16.748   4.837  0.00  0.00     0.186 C 
BRANCH  17  18
HETATM   18  C   UNK N   1      22.331  16.341   6.062  0.00  0.00    -0.039 A 
HETATM   19  C   UNK N   1      22.545  15.120   6.720  0.00  0.00     0.012 A 
HETATM   20  C   UNK N   1      21.750  14.767   7.815  0.00  0.00     0.043 A 
HETATM   21  C   UNK N   1      20.744  15.631   8.258  0.00  0.00     0.116 A 
HETATM   22  C   UNK N   1      20.541  16.853   7.615  0.00  0.00     0.043 A 
HETATM   23  F   UNK N   1      19.961  15.282   9.307  0.00  0.00    -0.206 F 
HETATM   24  C   UNK N   1      21.331  17.205   6.520  0.00  0.00     0.012 A 
ENDBRANCH  17  18
ENDBRANCH  16  17
BRANCH   9  25
HETATM   25  N   UNK N   1      28.341  17.263   5.651  0.00  0.00    -0.217 N 
HETATM   26  C   UNK N   1      29.287  16.698   4.721  0.00  0.00     0.169 C 
HETATM   27  C   UNK N   1      28.783  17.606   6.966  0.00  0.00     0.682 A 
HETATM   28  N   UNK N   1      27.966  18.281   7.821  0.00  0.00    -0.202 N 
HETATM   29  N   UNK N   1      30.018  17.219   7.392  0.00  0.00    -0.171 N 
HETATM   30  C   UNK N   1      28.352  18.571   9.088  0.00  0.00     0.110 A 
ATOM     31  HN  UNK N   1      27.043  18.575   7.501  1.00  0.00     0.183 HD
HETATM   32  C   UNK N   1      29.602  18.162   9.541  0.00  0.00     0.074 A 
HETATM   33  C   UNK N   1      30.433  17.475   8.661  0.00  0.00     0.156 A 
ATOM     34  HN  UNK N   1      30.641  16.729   6.749  1.00  0.00     0.186 HD
BRANCH  33  35
HETATM   35  O   UNK N   1      31.638  17.051   9.071  0.00  0.00    -0.346 OA
HETATM   36  H   UNK N   1      32.406  17.244   8.569  0.00  0.00     0.219 HD
ENDBRANCH  33  35
ENDBRANCH   9  25
TORSDOF 4
ENDMDL
MODEL 7
REMARK VINA RESULT:      -7.2      5.880      7.487
REMARK  4 active torsions:
REMARK  status: ('A' for Active; 'I' for Inactive)
REMARK    1  A    between atoms: C_17  and  C_16 
REMARK    2  A    between atoms: N_34  and  C_16 
REMARK    3  A    between atoms: N_32  and  C_19 
REMARK    4  A    between atoms: O_35  and  C_22 
REMARK       I    between atoms: N_32  and  C_23 
REMARK       I    between atoms: N_33  and  C_24 
ROOT
HETATM    1  C   UNK N   1      21.850   7.935   5.106  0.00  0.00     0.002 A 
HETATM    2  C   UNK N   1      22.790   8.715   5.821  0.00  0.00     0.002 A 
HETATM    3  C   UNK N   1      21.108   8.501   4.052  0.00  0.00     0.032 A 
HETATM    4  C   UNK N   1      23.003  10.065   5.483  0.00  0.00     0.032 A 
HETATM    5  C   UNK N   1      19.928  14.850   3.332  0.00  0.00     0.046 C 
HETATM    6  C   UNK N   1      22.140  15.056   1.970  0.00  0.00     0.046 C 
HETATM    7  C   UNK N   1      19.653  13.539   2.592  0.00  0.00     0.143 C 
HETATM    8  C   UNK N   1      21.825  13.685   1.379  0.00  0.00     0.143 C 
HETATM    9  C   UNK N   1      20.888  15.735   2.527  0.00  0.00     0.104 C 
HETATM   10  C   UNK N   1      21.353   9.834   3.739  0.00  0.00     0.076 A 
HETATM   11  C   UNK N   1      22.269  10.585   4.420  0.00  0.00     0.079 A 
HETATM   12  C   UNK N   1      21.338  11.800   2.930  0.00  0.00     0.683 A 
HETATM   13  N   UNK N   1      20.738  10.588   2.809  0.00  0.00    -0.189 N 
ATOM     14  HN  UNK N   1      19.997  10.314   2.165  1.00  0.00     0.184 HD
HETATM   15  N   UNK N   1      20.911  12.946   2.225  0.00  0.00    -0.217 N 
HETATM   16  N   UNK N   1      22.268  11.831   3.915  0.00  0.00    -0.177 N 
ENDROOT
BRANCH  16  17
HETATM   17  C   UNK N   1      22.963  13.025   4.399  0.00  0.00     0.186 C 
BRANCH  17  18
HETATM   18  C   UNK N   1      22.327  13.755   5.544  0.00  0.00    -0.039 A 
HETATM   19  C   UNK N   1      21.314  13.192   6.335  0.00  0.00     0.012 A 
HETATM   20  C   UNK N   1      20.710  13.951   7.343  0.00  0.00     0.043 A 
HETATM   21  C   UNK N   1      21.117  15.270   7.566  0.00  0.00     0.116 A 
HETATM   22  C   UNK N   1      22.136  15.826   6.791  0.00  0.00     0.043 A 
HETATM   23  F   UNK N   1      20.520  16.013   8.529  0.00  0.00    -0.206 F 
HETATM   24  C   UNK N   1      22.737  15.070   5.783  0.00  0.00     0.012 A 
ENDBRANCH  17  18
ENDBRANCH  16  17
BRANCH   9  25
HETATM   25  N   UNK N   1      20.302  16.778   1.698  0.00  0.00    -0.217 N 
HETATM   26  C   UNK N   1      19.671  16.369   0.468  0.00  0.00     0.169 C 
HETATM   27  C   UNK N   1      20.549  18.168   1.922  0.00  0.00     0.682 A 
HETATM   28  N   UNK N   1      20.999  18.609   3.129  0.00  0.00    -0.202 N 
HETATM   29  N   UNK N   1      20.377  19.062   0.909  0.00  0.00    -0.171 N 
HETATM   30  C   UNK N   1      21.286  19.918   3.342  0.00  0.00     0.110 A 
ATOM     31  HN  UNK N   1      21.124  17.941   3.889  1.00  0.00     0.183 HD
HETATM   32  C   UNK N   1      21.135  20.836   2.308  0.00  0.00     0.074 A 
HETATM   33  C   UNK N   1      20.671  20.378   1.078  0.00  0.00     0.156 A 
ATOM     34  HN  UNK N   1      20.023  18.739   0.008  1.00  0.00     0.186 HD
BRANCH  33  35
HETATM   35  O   UNK N   1      20.530  21.234   0.054  0.00  0.00    -0.346 OA
HETATM   36  H   UNK N   1      20.209  22.103   0.202  0.00  0.00     0.219 HD
ENDBRANCH  33  35
ENDBRANCH   9  25
TORSDOF 4
ENDMDL
MODEL 8
REMARK VINA RESULT:      -7.0     13.771     16.682
REMARK  4 active torsions:
REMARK  status: ('A' for Active; 'I' for Inactive)
REMARK    1  A    between atoms: C_17  and  C_16 
REMARK    2  A    between atoms: N_34  and  C_16 
REMARK    3  A    between atoms: N_32  and  C_19 
REMARK    4  A    between atoms: O_35  and  C_22 
REMARK       I    between atoms: N_32  and  C_23 
REMARK       I    between atoms: N_33  and  C_24 
ROOT
HETATM    1  C   UNK N   1      38.042  14.188   9.579  0.00  0.00     0.002 A 
HETATM    2  C   UNK N   1      36.944  14.840  10.191  0.00  0.00     0.002 A 
HETATM    3  C   UNK N   1      38.432  12.902   9.998  0.00  0.00     0.032 A 
HETATM    4  C   UNK N   1      36.222  14.207  11.221  0.00  0.00     0.032 A 
HETATM    5  C   UNK N   1      37.127  10.337  15.823  0.00  0.00     0.046 C 
HETATM    6  C   UNK N   1      34.889   9.414  14.861  0.00  0.00     0.046 C 
HETATM    7  C   UNK N   1      37.802   9.927  14.513  0.00  0.00     0.143 C 
HETATM    8  C   UNK N   1      35.636   9.153  13.555  0.00  0.00     0.143 C 
HETATM    9  C   UNK N   1      35.845   9.525  16.049  0.00  0.00     0.104 C 
HETATM   10  C   UNK N   1      37.689  12.304  11.010  0.00  0.00     0.076 A 
HETATM   11  C   UNK N   1      36.621  12.926  11.593  0.00  0.00     0.079 A 
HETATM   12  C   UNK N   1      36.910  11.021  12.517  0.00  0.00     0.683 A 
HETATM   13  N   UNK N   1      37.902  11.110  11.593  0.00  0.00    -0.189 N 
ATOM     14  HN  UNK N   1      38.635  10.432  11.389  1.00  0.00     0.184 HD
HETATM   15  N   UNK N   1      36.825   9.973  13.458  0.00  0.00    -0.217 N 
HETATM   16  N   UNK N   1      36.120  12.122  12.548  0.00  0.00    -0.177 N 
ENDROOT
BRANCH  16  17
HETATM   17  C   UNK N   1      35.078  12.400  13.537  0.00  0.00     0.186 C 
BRANCH  17  18
HETATM   18  C   UNK N   1      35.507  13.120  14.780  0.00  0.00    -0.039 A 
HETATM   19  C   UNK N   1      34.800  13.038  15.989  0.00  0.00     0.012 A 
HETATM   20  C   UNK N   1      35.212  13.791  17.093  0.00  0.00     0.043 A 
HETATM   21  C   UNK N   1      36.330  14.626  16.994  0.00  0.00     0.116 A 
HETATM   22  C   UNK N   1      37.044  14.696  15.797  0.00  0.00     0.043 A 
HETATM   23  F   UNK N   1      36.719  15.371  18.057  0.00  0.00    -0.206 F 
HETATM   24  C   UNK N   1      36.632  13.947  14.695  0.00  0.00     0.012 A 
ENDBRANCH  17  18
ENDBRANCH  16  17
BRANCH   9  25
HETATM   25  N   UNK N   1      35.934   8.358  16.912  0.00  0.00    -0.217 N 
HETATM   26  C   UNK N   1      36.833   7.305  16.510  0.00  0.00     0.169 C 
HETATM   27  C   UNK N   1      35.003   8.109  17.969  0.00  0.00     0.682 A 
HETATM   28  N   UNK N   1      34.247   9.118  18.482  0.00  0.00    -0.202 N 
HETATM   29  N   UNK N   1      34.835   6.844  18.443  0.00  0.00    -0.171 N 
HETATM   30  C   UNK N   1      33.325   8.890  19.450  0.00  0.00     0.110 A 
ATOM     31  HN  UNK N   1      34.377  10.067  18.130  1.00  0.00     0.183 HD
HETATM   32  C   UNK N   1      33.128   7.598  19.926  0.00  0.00     0.074 A 
HETATM   33  C   UNK N   1      33.907   6.572  19.400  0.00  0.00     0.156 A 
ATOM     34  HN  UNK N   1      35.412   6.087  18.075  1.00  0.00     0.186 HD
BRANCH  33  35
HETATM   35  O   UNK N   1      33.731   5.311  19.825  0.00  0.00    -0.346 OA
HETATM   36  H   UNK N   1      33.068   5.111  20.456  0.00  0.00     0.219 HD
ENDBRANCH  33  35
ENDBRANCH   9  25
TORSDOF 4
ENDMDL
MODEL 9
REMARK VINA RESULT:      -7.0     13.625     15.990
REMARK  4 active torsions:
REMARK  status: ('A' for Active; 'I' for Inactive)
REMARK    1  A    between atoms: C_17  and  C_16 
REMARK    2  A    between atoms: N_34  and  C_16 
REMARK    3  A    between atoms: N_32  and  C_19 
REMARK    4  A    between atoms: O_35  and  C_22 
REMARK       I    between atoms: N_32  and  C_23 
REMARK       I    between atoms: N_33  and  C_24 
ROOT
HETATM    1  C   UNK N   1      24.949  27.789 -12.692  0.00  0.00     0.002 A 
HETATM    2  C   UNK N   1      23.991  27.160 -11.861  0.00  0.00     0.002 A 
HETATM    3  C   UNK N   1      26.319  27.494 -12.551  0.00  0.00     0.032 A 
HETATM    4  C   UNK N   1      24.393  26.225 -10.888  0.00  0.00     0.032 A 
HETATM    5  C   UNK N   1      29.074  25.124  -7.165  0.00  0.00     0.046 C 
HETATM    6  C   UNK N   1      28.580  22.717  -8.031  0.00  0.00     0.046 C 
HETATM    7  C   UNK N   1      29.478  25.501  -8.592  0.00  0.00     0.143 C 
HETATM    8  C   UNK N   1      28.894  23.230  -9.434  0.00  0.00     0.143 C 
HETATM    9  C   UNK N   1      29.192  23.609  -6.951  0.00  0.00     0.104 C 
HETATM   10  C   UNK N   1      26.678  26.558 -11.588  0.00  0.00     0.076 A 
HETATM   11  C   UNK N   1      25.753  25.940 -10.792  0.00  0.00     0.079 A 
HETATM   12  C   UNK N   1      27.704  25.256 -10.256  0.00  0.00     0.683 A 
HETATM   13  N   UNK N   1      27.917  26.156 -11.250  0.00  0.00    -0.189 N 
ATOM     14  HN  UNK N   1      28.806  26.457 -11.648  1.00  0.00     0.184 HD
HETATM   15  N   UNK N   1      28.750  24.668  -9.511  0.00  0.00    -0.217 N 
HETATM   16  N   UNK N   1      26.393  25.113  -9.947  0.00  0.00    -0.177 N 
ENDROOT
BRANCH  16  17
HETATM   17  C   UNK N   1      25.857  24.350  -8.818  0.00  0.00     0.186 C 
BRANCH  17  18
HETATM   18  C   UNK N   1      25.751  25.073  -7.509  0.00  0.00    -0.039 A 
HETATM   19  C   UNK N   1      25.780  26.472  -7.408  0.00  0.00     0.012 A 
HETATM   20  C   UNK N   1      25.749  27.085  -6.152  0.00  0.00     0.043 A 
HETATM   21  C   UNK N   1      25.686  26.303  -4.993  0.00  0.00     0.116 A 
HETATM   22  C   UNK N   1      25.640  24.912  -5.092  0.00  0.00     0.043 A 
HETATM   23  F   UNK N   1      25.675  26.894  -3.774  0.00  0.00    -0.206 F 
HETATM   24  C   UNK N   1      25.674  24.301  -6.346  0.00  0.00     0.012 A 
ENDBRANCH  17  18
ENDBRANCH  16  17
BRANCH   9  25
HETATM   25  N   UNK N   1      30.407  23.114  -6.322  0.00  0.00    -0.217 N 
HETATM   26  C   UNK N   1      31.386  22.489  -7.175  0.00  0.00     0.169 C 
HETATM   27  C   UNK N   1      30.546  22.996  -4.904  0.00  0.00     0.682 A 
HETATM   28  N   UNK N   1      29.736  23.697  -4.064  0.00  0.00    -0.202 N 
HETATM   29  N   UNK N   1      31.467  22.140  -4.380  0.00  0.00    -0.171 N 
HETATM   30  C   UNK N   1      29.822  23.557  -2.718  0.00  0.00     0.110 A 
ATOM     31  HN  UNK N   1      29.049  24.341  -4.457  1.00  0.00     0.183 HD
HETATM   32  C   UNK N   1      30.743  22.670  -2.172  0.00  0.00     0.074 A 
HETATM   33  C   UNK N   1      31.570  21.959  -3.037  0.00  0.00     0.156 A 
ATOM     34  HN  UNK N   1      32.089  21.626  -5.005  1.00  0.00     0.186 HD
BRANCH  33  35
HETATM   35  O   UNK N   1      32.459  21.082  -2.544  0.00  0.00    -0.346 OA
HETATM   36  H   UNK N   1      32.179  20.237  -2.249  0.00  0.00     0.219 HD
ENDBRANCH  33  35
ENDBRANCH   9  25
TORSDOF 4
ENDMDL
