REMARK  0 active torsions:
REMARK  status: ('A' for Active; 'I' for Inactive)
ROOT
HETATM    1  C   UNK N   1       1.310   3.546   3.115  0.00  0.00     0.312 C 
HETATM    2  N   UNK N   1       2.314   3.512   2.051  0.00  0.00     0.114 N 
HETATM    3  C   UNK N   1       2.208   2.240   1.290  0.00  0.00     0.295 C 
HETATM    4  C   UNK N   1       3.502   2.165   0.503  0.00  0.00    -0.006 A 
HETATM    5  C   UNK N   1       4.241   0.981   0.431  0.00  0.00     0.011 A 
HETATM    6  C   UNK N   1       5.478   0.971  -0.224  0.00  0.00     0.001 A 
HETATM    7  C   UNK N   1       5.982   2.146  -0.797  0.00  0.00     0.001 A 
HETATM    8  C   UNK N   1       5.255   3.339  -0.714  0.00  0.00     0.016 A 
HETATM    9  C   UNK N   1       4.015   3.354  -0.065  0.00  0.00     0.021 A 
HETATM   10  C   UNK N   1       3.247   4.611   0.151  0.00  0.00     0.198 C 
HETATM   11  O   UNK N   1       3.668   5.688  -0.242  0.00  0.00    -0.290 OA
HETATM   12  C   UNK N   1       1.999   4.531   1.013  0.00  0.00     0.335 C 
HETATM   13  C   UNK N   1       0.914   3.839   0.255  0.00  0.00     0.046 A 
HETATM   14  C   UNK N   1       1.038   2.538   0.395  0.00  0.00     0.043 A 
HETATM   15  C   UNK N   1      -0.034   1.604  -0.024  0.00  0.00     0.192 A 
HETATM   16  O   UNK N   1       0.103   0.400   0.115  0.00  0.00    -0.287 OA
HETATM   17  C   UNK N   1      -1.322   2.179  -0.504  0.00  0.00     0.029 A 
HETATM   18  C   UNK N   1      -2.428   1.352  -0.750  0.00  0.00     0.016 A 
HETATM   19  C   UNK N   1      -3.653   1.911  -1.126  0.00  0.00     0.001 A 
HETATM   20  C   UNK N   1      -3.781   3.296  -1.266  0.00  0.00     0.001 A 
HETATM   21  C   UNK N   1      -2.683   4.129  -1.032  0.00  0.00     0.016 A 
HETATM   22  C   UNK N   1      -1.451   3.579  -0.647  0.00  0.00     0.029 A 
HETATM   23  C   UNK N   1      -0.299   4.459  -0.322  0.00  0.00     0.192 A 
HETATM   24  O   UNK N   1      -0.383   5.671  -0.429  0.00  0.00    -0.287 OA
ENDROOT
TORSDOF 0
