MODEL 1
REMARK VINA RESULT:      -8.0      0.000      0.000
REMARK  15 active torsions:
REMARK  status: ('A' for Active; 'I' for Inactive)
REMARK    1  A    between atoms: C_2  and  C_3 
REMARK    2  A    between atoms: C_3  and  C_4 
REMARK    3  A    between atoms: C_3  and  O_51 
REMARK    4  A    between atoms: C_6  and  C_4 
REMARK    5  A    between atoms: C_7  and  C_9 
REMARK    6  A    between atoms: C_9  and  C_10 
REMARK    7  A    between atoms: C_10  and  C_12 
REMARK    8  A    between atoms: C_10  and  O_50 
REMARK    9  A    between atoms: C_13  and  C_14 
REMARK   10  A    between atoms: C_17  and  C_15 
REMARK   11  A    between atoms: C_21  and  O_33 
REMARK   12  A    between atoms: C_22  and  O_32 
REMARK   13  A    between atoms: C_25  and  O_30 
REMARK   14  A    between atoms: O_33  and  C_34 
REMARK       I    between atoms: C_34  and  N_36 
REMARK   15  A    between atoms: N_39  and  C_42 
ROOT
HETATM    1  C   UNK N   1      23.788  15.709   4.066  0.00  0.00     0.167 C 
HETATM    2  C   UNK N   1      25.295  15.610   4.390  0.00  0.00     0.038 C 
HETATM    3  C   UNK N   1      26.173  16.170   3.278  0.00  0.00    -0.021 C 
HETATM    4  C   UNK N   1      27.208  17.025   3.406  0.00  0.00     0.005 C 
HETATM    5  C   UNK N   1      27.660  17.546   4.734  0.00  0.00     0.190 C 
HETATM    6  C   UNK N   1      27.568  19.060   5.044  0.00  0.00     0.084 C 
HETATM    7  C   UNK N   1      26.155  19.597   4.896  0.00  0.00     0.043 C 
HETATM    8  C   UNK N   1      25.712  19.817   3.458  0.00  0.00     0.035 C 
HETATM    9  C   UNK N   1      24.316  20.415   3.501  0.00  0.00     0.127 C 
HETATM   10  C   UNK N   1      23.199  19.376   3.386  0.00  0.00     0.142 C 
HETATM   11  C   UNK N   1      23.430  18.132   4.189  0.00  0.00     0.261 C 
HETATM   12  O   UNK N   1      23.618  18.200   5.394  0.00  0.00    -0.265 OA
HETATM   13  O   UNK N   1      23.427  16.940   3.543  0.00  0.00    -0.311 OA
HETATM   14  C   UNK N   1      27.943  19.274   6.500  0.00  0.00     0.049 C 
HETATM   15  C   UNK N   1      25.621  16.010   5.827  0.00  0.00     0.017 C 
ENDROOT
BRANCH   1  16
HETATM   16  C   UNK N   1      22.859  15.173   5.161  0.00  0.00    -0.054 C 
HETATM   17  C   UNK N   1      22.241  13.988   5.026  0.00  0.00     0.005 C 
HETATM   18  C   UNK N   1      22.571  15.975   6.388  0.00  0.00     0.046 C 
BRANCH  17  19
HETATM   19  C   UNK N   1      22.446  13.159   3.824  0.00  0.00    -0.001 C 
HETATM   20  C   UNK N   1      23.112  11.994   3.840  0.00  0.00     0.010 C 
BRANCH  20  21
HETATM   21  C   UNK N   1      23.918  11.449   5.002  0.00  0.00     0.074 C 
HETATM   22  C   UNK N   1      24.619  10.149   4.654  0.00  0.00     0.050 C 
BRANCH  21  23
HETATM   23  C   UNK N   1      23.010  11.242   6.225  0.00  0.00     0.076 C 
BRANCH  23  24
HETATM   24  C   UNK N   1      23.857  11.342   7.484  0.00  0.00     0.154 A 
HETATM   25  C   UNK N   1      22.953  11.316   8.657  0.00  0.00     0.157 A 
HETATM   26  O   UNK N   1      23.773  10.218   8.313  0.00  0.00    -0.375 OA
BRANCH  25  27
HETATM   27  C   UNK N   1      23.544  12.356   9.612  0.00  0.00     0.042 C 
HETATM   28  C   UNK N   1      22.539  13.490   9.715  0.00  0.00     0.015 C 
BRANCH  27  29
HETATM   29  C   UNK N   1      24.034  11.888  10.996  0.00  0.00     0.124 C 
BRANCH  29  30
HETATM   30  C   UNK N   1      22.914  11.999  12.031  0.00  0.00     0.027 C 
HETATM   31  C   UNK N   1      23.425  12.020  13.459  0.00  0.00     0.007 C 
ENDBRANCH  29  30
BRANCH  29  32
HETATM   32  O   UNK N   1      25.075  12.704  11.441  0.00  0.00    -0.395 OA
HETATM   33  H   UNK N   1      25.325  12.888  12.359  0.00  0.00     0.210 HD
ENDBRANCH  29  32
ENDBRANCH  27  29
ENDBRANCH  25  27
ENDBRANCH  23  24
ENDBRANCH  21  23
BRANCH  21  34
HETATM   34  O   UNK N   1      24.903  12.385   5.319  0.00  0.00    -0.386 OA
HETATM   35  H   UNK N   1      25.267  13.282   5.381  0.00  0.00     0.211 HD
ENDBRANCH  21  34
ENDBRANCH  20  21
ENDBRANCH  17  19
ENDBRANCH   1  16
BRANCH   5  36
HETATM   36  O   UNK N   1      28.795  16.916   5.212  0.00  0.00    -0.291 OA
BRANCH  36  37
HETATM   37  C   UNK N   1      29.728  16.309   4.437  0.00  0.00     0.363 C 
HETATM   38  O   UNK N   1      30.532  16.974   3.799  0.00  0.00    -0.238 OA
HETATM   39  N   UNK N   1      29.801  14.956   4.427  0.00  0.00    -0.325 N 
HETATM   40  C   UNK N   1      28.835  14.168   5.166  0.00  0.00     0.158 C 
HETATM   41  C   UNK N   1      30.879  14.291   3.726  0.00  0.00     0.158 C 
HETATM   42  C   UNK N   1      28.262  13.055   4.274  0.00  0.00     0.293 C 
HETATM   43  N   UNK N   1      29.217  12.540   3.269  0.00  0.00     0.096 N 
HETATM   44  C   UNK N   1      30.613  12.791   3.667  0.00  0.00     0.293 C 
BRANCH  43  45
HETATM   45  C   UNK N   1      28.874  13.120   1.951  0.00  0.00     0.223 C 
HETATM   46  C   UNK N   1      27.362  13.293   1.780  0.00  0.00     0.036 C 
HETATM   47  C   UNK N   1      26.565  12.025   2.079  0.00  0.00     0.002 C 
HETATM   48  C   UNK N   1      26.887  10.889   1.121  0.00  0.00     0.000 C 
HETATM   49  C   UNK N   1      28.222  10.265   1.487  0.00  0.00     0.000 C 
HETATM   50  C   UNK N   1      29.368  10.870   0.684  0.00  0.00     0.002 C 
HETATM   51  C   UNK N   1      29.484  12.400   0.730  0.00  0.00     0.036 C 
ENDBRANCH  43  45
ENDBRANCH  36  37
ENDBRANCH   5  36
BRANCH   9  52
HETATM   52  O   UNK N   1      24.177  21.348   2.475  0.00  0.00    -0.395 OA
HETATM   53  H   UNK N   1      23.962  22.293   2.445  0.00  0.00     0.210 HD
ENDBRANCH   9  52
BRANCH   6  54
HETATM   54  O   UNK N   1      28.434  19.806   4.242  0.00  0.00    -0.387 OA
HETATM   55  H   UNK N   1      28.273  20.506   3.591  0.00  0.00     0.210 HD
ENDBRANCH   6  54
TORSDOF 15
ENDMDL
MODEL 2
REMARK VINA RESULT:      -7.8      7.650     10.800
REMARK  15 active torsions:
REMARK  status: ('A' for Active; 'I' for Inactive)
REMARK    1  A    between atoms: C_2  and  C_3 
REMARK    2  A    between atoms: C_3  and  C_4 
REMARK    3  A    between atoms: C_3  and  O_51 
REMARK    4  A    between atoms: C_6  and  C_4 
REMARK    5  A    between atoms: C_7  and  C_9 
REMARK    6  A    between atoms: C_9  and  C_10 
REMARK    7  A    between atoms: C_10  and  C_12 
REMARK    8  A    between atoms: C_10  and  O_50 
REMARK    9  A    between atoms: C_13  and  C_14 
REMARK   10  A    between atoms: C_17  and  C_15 
REMARK   11  A    between atoms: C_21  and  O_33 
REMARK   12  A    between atoms: C_22  and  O_32 
REMARK   13  A    between atoms: C_25  and  O_30 
REMARK   14  A    between atoms: O_33  and  C_34 
REMARK       I    between atoms: C_34  and  N_36 
REMARK   15  A    between atoms: N_39  and  C_42 
ROOT
HETATM    1  C   UNK N   1      32.989  15.913   7.634  0.00  0.00     0.167 C 
HETATM    2  C   UNK N   1      33.601  14.597   7.108  0.00  0.00     0.038 C 
HETATM    3  C   UNK N   1      32.566  13.683   6.464  0.00  0.00    -0.021 C 
HETATM    4  C   UNK N   1      32.661  13.050   5.277  0.00  0.00     0.005 C 
HETATM    5  C   UNK N   1      33.872  13.157   4.405  0.00  0.00     0.190 C 
HETATM    6  C   UNK N   1      33.763  13.808   3.004  0.00  0.00     0.084 C 
HETATM    7  C   UNK N   1      33.223  15.227   3.065  0.00  0.00     0.043 C 
HETATM    8  C   UNK N   1      31.720  15.320   3.278  0.00  0.00     0.035 C 
HETATM    9  C   UNK N   1      31.349  16.793   3.244  0.00  0.00     0.127 C 
HETATM   10  C   UNK N   1      31.298  17.446   4.626  0.00  0.00     0.142 C 
HETATM   11  C   UNK N   1      32.421  17.048   5.536  0.00  0.00     0.261 C 
HETATM   12  O   UNK N   1      33.582  17.217   5.196  0.00  0.00    -0.265 OA
HETATM   13  O   UNK N   1      32.111  16.499   6.736  0.00  0.00    -0.311 OA
HETATM   14  C   UNK N   1      35.160  13.920   2.418  0.00  0.00     0.049 C 
HETATM   15  C   UNK N   1      34.923  14.807   6.375  0.00  0.00     0.017 C 
ENDROOT
BRANCH   1  16
HETATM   16  C   UNK N   1      33.993  16.876   8.279  0.00  0.00    -0.054 C 
HETATM   17  C   UNK N   1      34.426  16.684   9.536  0.00  0.00     0.005 C 
HETATM   18  C   UNK N   1      34.480  18.085   7.549  0.00  0.00     0.046 C 
BRANCH  17  19
HETATM   19  C   UNK N   1      33.958  15.535  10.332  0.00  0.00    -0.001 C 
HETATM   20  C   UNK N   1      34.789  14.703  10.980  0.00  0.00     0.010 C 
BRANCH  20  21
HETATM   21  C   UNK N   1      36.297  14.672  10.843  0.00  0.00     0.074 C 
HETATM   22  C   UNK N   1      36.739  14.313   9.437  0.00  0.00     0.050 C 
BRANCH  21  23
HETATM   23  C   UNK N   1      36.900  13.680  11.850  0.00  0.00     0.076 C 
BRANCH  23  24
HETATM   24  C   UNK N   1      36.048  13.686  13.111  0.00  0.00     0.154 A 
HETATM   25  C   UNK N   1      36.904  13.286  14.252  0.00  0.00     0.157 A 
HETATM   26  O   UNK N   1      36.465  14.617  14.070  0.00  0.00    -0.375 OA
BRANCH  25  27
HETATM   27  C   UNK N   1      36.010  12.366  15.088  0.00  0.00     0.042 C 
HETATM   28  C   UNK N   1      36.811  11.109  15.380  0.00  0.00     0.015 C 
BRANCH  27  29
HETATM   29  C   UNK N   1      35.348  12.938  16.356  0.00  0.00     0.124 C 
BRANCH  29  30
HETATM   30  C   UNK N   1      35.323  11.892  17.471  0.00  0.00     0.027 C 
HETATM   31  C   UNK N   1      35.265  12.505  18.858  0.00  0.00     0.007 C 
ENDBRANCH  29  30
BRANCH  29  32
HETATM   32  O   UNK N   1      34.020  13.280  16.095  0.00  0.00    -0.395 OA
HETATM   33  H   UNK N   1      33.699  13.998  15.528  0.00  0.00     0.210 HD
ENDBRANCH  29  32
ENDBRANCH  27  29
ENDBRANCH  25  27
ENDBRANCH  23  24
ENDBRANCH  21  23
BRANCH  21  34
HETATM   34  O   UNK N   1      36.781  15.951  11.120  0.00  0.00    -0.386 OA
HETATM   35  H   UNK N   1      36.848  16.909  10.979  0.00  0.00     0.211 HD
ENDBRANCH  21  34
ENDBRANCH  20  21
ENDBRANCH  17  19
ENDBRANCH   1  16
BRANCH   5  36
HETATM   36  O   UNK N   1      34.697  12.049   4.474  0.00  0.00    -0.291 OA
BRANCH  36  37
HETATM   37  C   UNK N   1      34.305  10.816   4.884  0.00  0.00     0.363 C 
HETATM   38  O   UNK N   1      33.426  10.214   4.284  0.00  0.00    -0.238 OA
HETATM   39  N   UNK N   1      34.942  10.233   5.928  0.00  0.00    -0.325 N 
HETATM   40  C   UNK N   1      35.969  10.954   6.652  0.00  0.00     0.158 C 
HETATM   41  C   UNK N   1      34.643   8.863   6.288  0.00  0.00     0.158 C 
HETATM   42  C   UNK N   1      35.717  10.862   8.165  0.00  0.00     0.293 C 
HETATM   43  N   UNK N   1      35.079   9.599   8.592  0.00  0.00     0.096 N 
HETATM   44  C   UNK N   1      35.308   8.518   7.616  0.00  0.00     0.293 C 
BRANCH  43  45
HETATM   45  C   UNK N   1      33.645   9.856   8.849  0.00  0.00     0.223 C 
HETATM   46  C   UNK N   1      33.435  11.112   9.701  0.00  0.00     0.036 C 
HETATM   47  C   UNK N   1      34.265  11.125  10.984  0.00  0.00     0.002 C 
HETATM   48  C   UNK N   1      33.889  10.001  11.937  0.00  0.00     0.000 C 
HETATM   49  C   UNK N   1      34.472   8.688  11.445  0.00  0.00     0.000 C 
HETATM   50  C   UNK N   1      33.471   7.906  10.603  0.00  0.00     0.002 C 
HETATM   51  C   UNK N   1      32.849   8.666   9.424  0.00  0.00     0.036 C 
ENDBRANCH  43  45
ENDBRANCH  36  37
ENDBRANCH   5  36
BRANCH   9  52
HETATM   52  O   UNK N   1      30.112  16.947   2.621  0.00  0.00    -0.395 OA
HETATM   53  H   UNK N   1      29.829  17.245   1.742  0.00  0.00     0.210 HD
ENDBRANCH   9  52
BRANCH   6  54
HETATM   54  O   UNK N   1      32.972  13.047   2.140  0.00  0.00    -0.387 OA
HETATM   55  H   UNK N   1      32.849  12.090   2.048  0.00  0.00     0.210 HD
ENDBRANCH   6  54
TORSDOF 15
ENDMDL
MODEL 3
REMARK VINA RESULT:      -7.8      2.628      7.522
REMARK  15 active torsions:
REMARK  status: ('A' for Active; 'I' for Inactive)
REMARK    1  A    between atoms: C_2  and  C_3 
REMARK    2  A    between atoms: C_3  and  C_4 
REMARK    3  A    between atoms: C_3  and  O_51 
REMARK    4  A    between atoms: C_6  and  C_4 
REMARK    5  A    between atoms: C_7  and  C_9 
REMARK    6  A    between atoms: C_9  and  C_10 
REMARK    7  A    between atoms: C_10  and  C_12 
REMARK    8  A    between atoms: C_10  and  O_50 
REMARK    9  A    between atoms: C_13  and  C_14 
REMARK   10  A    between atoms: C_17  and  C_15 
REMARK   11  A    between atoms: C_21  and  O_33 
REMARK   12  A    between atoms: C_22  and  O_32 
REMARK   13  A    between atoms: C_25  and  O_30 
REMARK   14  A    between atoms: O_33  and  C_34 
REMARK       I    between atoms: C_34  and  N_36 
REMARK   15  A    between atoms: N_39  and  C_42 
ROOT
HETATM    1  C   UNK N   1      22.117  16.192   3.505  0.00  0.00     0.167 C 
HETATM    2  C   UNK N   1      23.303  15.380   2.940  0.00  0.00     0.038 C 
HETATM    3  C   UNK N   1      24.278  14.931   4.021  0.00  0.00    -0.021 C 
HETATM    4  C   UNK N   1      24.795  13.698   4.194  0.00  0.00     0.005 C 
HETATM    5  C   UNK N   1      24.471  12.556   3.281  0.00  0.00     0.190 C 
HETATM    6  C   UNK N   1      23.725  11.315   3.828  0.00  0.00     0.084 C 
HETATM    7  C   UNK N   1      22.391  11.673   4.461  0.00  0.00     0.043 C 
HETATM    8  C   UNK N   1      22.497  12.280   5.851  0.00  0.00     0.035 C 
HETATM    9  C   UNK N   1      21.081  12.509   6.353  0.00  0.00     0.127 C 
HETATM   10  C   UNK N   1      20.556  13.921   6.087  0.00  0.00     0.142 C 
HETATM   11  C   UNK N   1      20.889  14.455   4.727  0.00  0.00     0.261 C 
HETATM   12  O   UNK N   1      20.555  13.845   3.723  0.00  0.00    -0.265 OA
HETATM   13  O   UNK N   1      21.569  15.626   4.645  0.00  0.00    -0.311 OA
HETATM   14  C   UNK N   1      23.398  10.401   2.660  0.00  0.00     0.049 C 
HETATM   15  C   UNK N   1      22.875  14.355   1.893  0.00  0.00     0.017 C 
ENDROOT
BRANCH   1  16
HETATM   16  C   UNK N   1      21.098  16.655   2.459  0.00  0.00    -0.054 C 
HETATM   17  C   UNK N   1      20.405  17.794   2.624  0.00  0.00     0.005 C 
HETATM   18  C   UNK N   1      20.804  15.828   1.250  0.00  0.00     0.046 C 
BRANCH  17  19
HETATM   19  C   UNK N   1      20.612  18.641   3.813  0.00  0.00    -0.001 C 
HETATM   20  C   UNK N   1      21.084  19.896   3.748  0.00  0.00     0.010 C 
BRANCH  20  21
HETATM   21  C   UNK N   1      21.662  20.563   2.516  0.00  0.00     0.074 C 
HETATM   22  C   UNK N   1      20.727  20.476   1.325  0.00  0.00     0.050 C 
BRANCH  21  23
HETATM   23  C   UNK N   1      23.019  19.935   2.162  0.00  0.00     0.076 C 
BRANCH  23  24
HETATM   24  C   UNK N   1      24.079  20.506   3.093  0.00  0.00     0.154 A 
HETATM   25  C   UNK N   1      25.244  19.591   3.089  0.00  0.00     0.157 A 
HETATM   26  O   UNK N   1      25.272  20.851   2.448  0.00  0.00    -0.375 OA
BRANCH  25  27
HETATM   27  C   UNK N   1      25.691  19.544   4.552  0.00  0.00     0.042 C 
HETATM   28  C   UNK N   1      25.324  18.170   5.087  0.00  0.00     0.015 C 
BRANCH  27  29
HETATM   29  C   UNK N   1      27.144  19.927   4.889  0.00  0.00     0.124 C 
BRANCH  29  30
HETATM   30  C   UNK N   1      27.193  21.266   5.627  0.00  0.00     0.027 C 
HETATM   31  C   UNK N   1      26.477  21.232   6.964  0.00  0.00     0.007 C 
ENDBRANCH  29  30
BRANCH  29  32
HETATM   32  O   UNK N   1      27.886  20.086   3.717  0.00  0.00    -0.395 OA
HETATM   33  H   UNK N   1      28.825  19.882   3.584  0.00  0.00     0.210 HD
ENDBRANCH  29  32
ENDBRANCH  27  29
ENDBRANCH  25  27
ENDBRANCH  23  24
ENDBRANCH  21  23
BRANCH  21  34
HETATM   34  O   UNK N   1      21.847  21.915   2.806  0.00  0.00    -0.386 OA
HETATM   35  H   UNK N   1      21.639  22.860   2.734  0.00  0.00     0.211 HD
ENDBRANCH  21  34
ENDBRANCH  20  21
ENDBRANCH  17  19
ENDBRANCH   1  16
BRANCH   5  36
HETATM   36  O   UNK N   1      25.475  12.284   2.369  0.00  0.00    -0.291 OA
BRANCH  36  37
HETATM   37  C   UNK N   1      26.753  11.966   2.695  0.00  0.00     0.363 C 
HETATM   38  O   UNK N   1      27.020  10.863   3.150  0.00  0.00    -0.238 OA
HETATM   39  N   UNK N   1      27.740  12.862   2.452  0.00  0.00    -0.325 N 
HETATM   40  C   UNK N   1      27.421  14.176   1.932  0.00  0.00     0.158 C 
HETATM   41  C   UNK N   1      29.124  12.490   2.653  0.00  0.00     0.158 C 
HETATM   42  C   UNK N   1      28.131  15.261   2.757  0.00  0.00     0.293 C 
HETATM   43  N   UNK N   1      29.437  14.838   3.307  0.00  0.00     0.096 N 
HETATM   44  C   UNK N   1      30.015  13.722   2.537  0.00  0.00     0.293 C 
BRANCH  43  45
HETATM   45  C   UNK N   1      29.267  14.527   4.744  0.00  0.00     0.223 C 
HETATM   46  C   UNK N   1      28.420  15.584   5.459  0.00  0.00     0.036 C 
HETATM   47  C   UNK N   1      28.906  17.014   5.229  0.00  0.00     0.002 C 
HETATM   48  C   UNK N   1      30.298  17.258   5.791  0.00  0.00     0.000 C 
HETATM   49  C   UNK N   1      31.341  16.642   4.876  0.00  0.00     0.000 C 
HETATM   50  C   UNK N   1      31.730  15.238   5.326  0.00  0.00     0.002 C 
HETATM   51  C   UNK N   1      30.570  14.252   5.523  0.00  0.00     0.036 C 
ENDBRANCH  43  45
ENDBRANCH  36  37
ENDBRANCH   5  36
BRANCH   9  52
HETATM   52  O   UNK N   1      21.026  12.254   7.722  0.00  0.00    -0.395 OA
HETATM   53  H   UNK N   1      20.548  11.612   8.271  0.00  0.00     0.210 HD
ENDBRANCH   9  52
BRANCH   6  54
HETATM   54  O   UNK N   1      24.501  10.609   4.750  0.00  0.00    -0.387 OA
HETATM   55  H   UNK N   1      24.852  10.849   5.621  0.00  0.00     0.210 HD
ENDBRANCH   6  54
TORSDOF 15
ENDMDL
MODEL 4
REMARK VINA RESULT:      -7.6      4.841      8.596
REMARK  15 active torsions:
REMARK  status: ('A' for Active; 'I' for Inactive)
REMARK    1  A    between atoms: C_2  and  C_3 
REMARK    2  A    between atoms: C_3  and  C_4 
REMARK    3  A    between atoms: C_3  and  O_51 
REMARK    4  A    between atoms: C_6  and  C_4 
REMARK    5  A    between atoms: C_7  and  C_9 
REMARK    6  A    between atoms: C_9  and  C_10 
REMARK    7  A    between atoms: C_10  and  C_12 
REMARK    8  A    between atoms: C_10  and  O_50 
REMARK    9  A    between atoms: C_13  and  C_14 
REMARK   10  A    between atoms: C_17  and  C_15 
REMARK   11  A    between atoms: C_21  and  O_33 
REMARK   12  A    between atoms: C_22  and  O_32 
REMARK   13  A    between atoms: C_25  and  O_30 
REMARK   14  A    between atoms: O_33  and  C_34 
REMARK       I    between atoms: C_34  and  N_36 
REMARK   15  A    between atoms: N_39  and  C_42 
ROOT
HETATM    1  C   UNK N   1      30.363  14.962   5.819  0.00  0.00     0.167 C 
HETATM    2  C   UNK N   1      29.134  15.505   5.059  0.00  0.00     0.038 C 
HETATM    3  C   UNK N   1      27.901  15.629   5.946  0.00  0.00    -0.021 C 
HETATM    4  C   UNK N   1      27.072  16.687   6.050  0.00  0.00     0.005 C 
HETATM    5  C   UNK N   1      27.259  17.935   5.246  0.00  0.00     0.190 C 
HETATM    6  C   UNK N   1      27.563  19.276   5.958  0.00  0.00     0.084 C 
HETATM    7  C   UNK N   1      28.809  19.202   6.824  0.00  0.00     0.043 C 
HETATM    8  C   UNK N   1      28.611  18.488   8.152  0.00  0.00     0.035 C 
HETATM    9  C   UNK N   1      29.927  18.569   8.908  0.00  0.00     0.127 C 
HETATM   10  C   UNK N   1      30.825  17.347   8.710  0.00  0.00     0.142 C 
HETATM   11  C   UNK N   1      30.883  16.849   7.298  0.00  0.00     0.261 C 
HETATM   12  O   UNK N   1      31.229  17.592   6.393  0.00  0.00    -0.265 OA
HETATM   13  O   UNK N   1      30.541  15.558   7.057  0.00  0.00    -0.311 OA
HETATM   14  C   UNK N   1      27.855  20.325   4.898  0.00  0.00     0.049 C 
HETATM   15  C   UNK N   1      29.472  16.677   4.141  0.00  0.00     0.017 C 
ENDROOT
BRANCH   1  16
HETATM   16  C   UNK N   1      31.636  14.834   4.974  0.00  0.00    -0.054 C 
HETATM   17  C   UNK N   1      32.701  14.153   5.427  0.00  0.00     0.005 C 
HETATM   18  C   UNK N   1      31.750  15.505   3.645  0.00  0.00     0.046 C 
BRANCH  17  19
HETATM   19  C   UNK N   1      32.676  13.497   6.748  0.00  0.00    -0.001 C 
HETATM   20  C   UNK N   1      33.402  13.924   7.793  0.00  0.00     0.010 C 
BRANCH  20  21
HETATM   21  C   UNK N   1      34.488  14.979   7.748  0.00  0.00     0.074 C 
HETATM   22  C   UNK N   1      35.700  14.522   6.958  0.00  0.00     0.050 C 
BRANCH  21  23
HETATM   23  C   UNK N   1      34.909  15.367   9.174  0.00  0.00     0.076 C 
BRANCH  23  24
HETATM   24  C   UNK N   1      34.341  14.344  10.146  0.00  0.00     0.154 A 
HETATM   25  C   UNK N   1      35.323  14.144  11.237  0.00  0.00     0.157 A 
HETATM   26  O   UNK N   1      34.114  14.850  11.431  0.00  0.00    -0.375 OA
BRANCH  25  27
HETATM   27  C   UNK N   1      35.297  12.635  11.495  0.00  0.00     0.042 C 
HETATM   28  C   UNK N   1      36.500  12.041  10.784  0.00  0.00     0.015 C 
BRANCH  27  29
HETATM   29  C   UNK N   1      35.180  12.140  12.949  0.00  0.00     0.124 C 
BRANCH  29  30
HETATM   30  C   UNK N   1      34.251  10.928  13.034  0.00  0.00     0.027 C 
HETATM   31  C   UNK N   1      33.663  10.727  14.418  0.00  0.00     0.007 C 
ENDBRANCH  29  30
BRANCH  29  32
HETATM   32  O   UNK N   1      34.621  13.133  13.754  0.00  0.00    -0.395 OA
HETATM   33  H   UNK N   1      33.731  13.514  13.684  0.00  0.00     0.210 HD
ENDBRANCH  29  32
ENDBRANCH  27  29
ENDBRANCH  25  27
ENDBRANCH  23  24
ENDBRANCH  21  23
BRANCH  21  34
HETATM   34  O   UNK N   1      33.968  16.103   7.105  0.00  0.00    -0.386 OA
HETATM   35  H   UNK N   1      34.036  16.944   6.625  0.00  0.00     0.211 HD
ENDBRANCH  21  34
ENDBRANCH  20  21
ENDBRANCH  17  19
ENDBRANCH   1  16
BRANCH   5  36
HETATM   36  O   UNK N   1      26.398  18.026   4.166  0.00  0.00    -0.291 OA
BRANCH  36  37
HETATM   37  C   UNK N   1      25.048  18.115   4.258  0.00  0.00     0.363 C 
HETATM   38  O   UNK N   1      24.516  19.172   4.566  0.00  0.00    -0.238 OA
HETATM   39  N   UNK N   1      24.291  17.036   3.943  0.00  0.00    -0.325 N 
HETATM   40  C   UNK N   1      24.921  15.778   3.599  0.00  0.00     0.158 C 
HETATM   41  C   UNK N   1      22.849  17.151   3.890  0.00  0.00     0.158 C 
HETATM   42  C   UNK N   1      24.283  14.628   4.394  0.00  0.00     0.293 C 
HETATM   43  N   UNK N   1      22.849  14.828   4.692  0.00  0.00     0.096 N 
HETATM   44  C   UNK N   1      22.223  15.768   3.745  0.00  0.00     0.293 C 
BRANCH  43  45
HETATM   45  C   UNK N   1      22.712  15.248   6.104  0.00  0.00     0.223 C 
HETATM   46  C   UNK N   1      23.499  14.334   7.049  0.00  0.00     0.036 C 
HETATM   47  C   UNK N   1      23.197  12.850   6.855  0.00  0.00     0.002 C 
HETATM   48  C   UNK N   1      21.750  12.500   7.170  0.00  0.00     0.000 C 
HETATM   49  C   UNK N   1      20.850  12.943   6.031  0.00  0.00     0.000 C 
HETATM   50  C   UNK N   1      20.258  14.325   6.283  0.00  0.00     0.002 C 
HETATM   51  C   UNK N   1      21.265  15.437   6.605  0.00  0.00     0.036 C 
ENDBRANCH  43  45
ENDBRANCH  36  37
ENDBRANCH   5  36
BRANCH   9  52
HETATM   52  O   UNK N   1      29.672  18.730  10.269  0.00  0.00    -0.395 OA
HETATM   53  H   UNK N   1      28.984  19.187  10.779  0.00  0.00     0.210 HD
ENDBRANCH   9  52
BRANCH   6  54
HETATM   54  O   UNK N   1      26.484  19.708   6.733  0.00  0.00    -0.387 OA
HETATM   55  H   UNK N   1      25.594  19.346   6.864  0.00  0.00     0.210 HD
ENDBRANCH   6  54
TORSDOF 15
ENDMDL
MODEL 5
REMARK VINA RESULT:      -7.5      2.349      3.829
REMARK  15 active torsions:
REMARK  status: ('A' for Active; 'I' for Inactive)
REMARK    1  A    between atoms: C_2  and  C_3 
REMARK    2  A    between atoms: C_3  and  C_4 
REMARK    3  A    between atoms: C_3  and  O_51 
REMARK    4  A    between atoms: C_6  and  C_4 
REMARK    5  A    between atoms: C_7  and  C_9 
REMARK    6  A    between atoms: C_9  and  C_10 
REMARK    7  A    between atoms: C_10  and  C_12 
REMARK    8  A    between atoms: C_10  and  O_50 
REMARK    9  A    between atoms: C_13  and  C_14 
REMARK   10  A    between atoms: C_17  and  C_15 
REMARK   11  A    between atoms: C_21  and  O_33 
REMARK   12  A    between atoms: C_22  and  O_32 
REMARK   13  A    between atoms: C_25  and  O_30 
REMARK   14  A    between atoms: O_33  and  C_34 
REMARK       I    between atoms: C_34  and  N_36 
REMARK   15  A    between atoms: N_39  and  C_42 
ROOT
HETATM    1  C   UNK N   1      23.757  15.765   4.169  0.00  0.00     0.167 C 
HETATM    2  C   UNK N   1      25.254  15.639   4.524  0.00  0.00     0.038 C 
HETATM    3  C   UNK N   1      26.168  16.135   3.410  0.00  0.00    -0.021 C 
HETATM    4  C   UNK N   1      27.222  16.966   3.528  0.00  0.00     0.005 C 
HETATM    5  C   UNK N   1      27.664  17.523   4.845  0.00  0.00     0.190 C 
HETATM    6  C   UNK N   1      27.607  19.049   5.100  0.00  0.00     0.084 C 
HETATM    7  C   UNK N   1      26.212  19.617   4.906  0.00  0.00     0.043 C 
HETATM    8  C   UNK N   1      25.801  19.797   3.453  0.00  0.00     0.035 C 
HETATM    9  C   UNK N   1      24.421  20.432   3.448  0.00  0.00     0.127 C 
HETATM   10  C   UNK N   1      23.279  19.420   3.349  0.00  0.00     0.142 C 
HETATM   11  C   UNK N   1      23.462  18.200   4.199  0.00  0.00     0.261 C 
HETATM   12  O   UNK N   1      23.630  18.305   5.405  0.00  0.00    -0.265 OA
HETATM   13  O   UNK N   1      23.438  16.986   3.595  0.00  0.00    -0.311 OA
HETATM   14  C   UNK N   1      27.961  19.304   6.554  0.00  0.00     0.049 C 
HETATM   15  C   UNK N   1      25.565  16.080   5.952  0.00  0.00     0.017 C 
ENDROOT
BRANCH   1  16
HETATM   16  C   UNK N   1      22.794  15.294   5.264  0.00  0.00    -0.054 C 
HETATM   17  C   UNK N   1      22.172  14.106   5.174  0.00  0.00     0.005 C 
HETATM   18  C   UNK N   1      22.478  16.161   6.438  0.00  0.00     0.046 C 
BRANCH  17  19
HETATM   19  C   UNK N   1      22.404  13.214   4.024  0.00  0.00    -0.001 C 
HETATM   20  C   UNK N   1      22.999  12.016   4.132  0.00  0.00     0.010 C 
BRANCH  20  21
HETATM   21  C   UNK N   1      23.697  11.480   5.366  0.00  0.00     0.074 C 
HETATM   22  C   UNK N   1      24.159  10.046   5.187  0.00  0.00     0.050 C 
BRANCH  21  23
HETATM   23  C   UNK N   1      22.768  11.582   6.585  0.00  0.00     0.076 C 
BRANCH  23  24
HETATM   24  C   UNK N   1      23.606  11.910   7.812  0.00  0.00     0.154 A 
HETATM   25  C   UNK N   1      23.022  11.206   8.977  0.00  0.00     0.157 A 
HETATM   26  O   UNK N   1      24.236  10.797   8.381  0.00  0.00    -0.375 OA
BRANCH  25  27
HETATM   27  C   UNK N   1      23.114  12.224  10.116  0.00  0.00     0.042 C 
HETATM   28  C   UNK N   1      21.705  12.725  10.383  0.00  0.00     0.015 C 
BRANCH  27  29
HETATM   29  C   UNK N   1      23.837  11.812  11.413  0.00  0.00     0.124 C 
BRANCH  29  30
HETATM   30  C   UNK N   1      22.903  11.943  12.617  0.00  0.00     0.027 C 
HETATM   31  C   UNK N   1      23.637  12.269  13.904  0.00  0.00     0.007 C 
ENDBRANCH  29  30
BRANCH  29  32
HETATM   32  O   UNK N   1      24.921  12.658  11.651  0.00  0.00    -0.395 OA
HETATM   33  H   UNK N   1      25.585  12.578  12.353  0.00  0.00     0.210 HD
ENDBRANCH  29  32
ENDBRANCH  27  29
ENDBRANCH  25  27
ENDBRANCH  23  24
ENDBRANCH  21  23
BRANCH  21  34
HETATM   34  O   UNK N   1      24.831  12.261   5.591  0.00  0.00    -0.386 OA
HETATM   35  H   UNK N   1      25.703  12.444   5.978  0.00  0.00     0.211 HD
ENDBRANCH  21  34
ENDBRANCH  20  21
ENDBRANCH  17  19
ENDBRANCH   1  16
BRANCH   5  36
HETATM   36  O   UNK N   1      28.773  16.881   5.366  0.00  0.00    -0.291 OA
BRANCH  36  37
HETATM   37  C   UNK N   1      30.018  16.926   4.829  0.00  0.00     0.363 C 
HETATM   38  O   UNK N   1      30.174  16.837   3.620  0.00  0.00    -0.238 OA
HETATM   39  N   UNK N   1      31.081  17.135   5.642  0.00  0.00    -0.325 N 
HETATM   40  C   UNK N   1      30.898  17.219   7.077  0.00  0.00     0.158 C 
HETATM   41  C   UNK N   1      32.399  17.335   5.078  0.00  0.00     0.158 C 
HETATM   42  C   UNK N   1      31.910  16.314   7.796  0.00  0.00     0.293 C 
HETATM   43  N   UNK N   1      33.204  16.182   7.093  0.00  0.00     0.096 N 
HETATM   44  C   UNK N   1      33.447  17.317   6.185  0.00  0.00     0.293 C 
BRANCH  43  45
HETATM   45  C   UNK N   1      33.237  14.871   6.407  0.00  0.00     0.223 C 
HETATM   46  C   UNK N   1      32.746  13.740   7.316  0.00  0.00     0.036 C 
HETATM   47  C   UNK N   1      33.445  13.701   8.674  0.00  0.00     0.002 C 
HETATM   48  C   UNK N   1      34.935  13.422   8.559  0.00  0.00     0.000 C 
HETATM   49  C   UNK N   1      35.663  14.672   8.100  0.00  0.00     0.000 C 
HETATM   50  C   UNK N   1      35.853  14.692   6.587  0.00  0.00     0.002 C 
HETATM   51  C   UNK N   1      34.582  14.499   5.749  0.00  0.00     0.036 C 
ENDBRANCH  43  45
ENDBRANCH  36  37
ENDBRANCH   5  36
BRANCH   9  52
HETATM   52  O   UNK N   1      24.326  21.331   2.388  0.00  0.00    -0.395 OA
HETATM   53  H   UNK N   1      23.713  21.437   1.643  0.00  0.00     0.210 HD
ENDBRANCH   9  52
BRANCH   6  54
HETATM   54  O   UNK N   1      28.508  19.743   4.289  0.00  0.00    -0.387 OA
HETATM   55  H   UNK N   1      28.374  20.374   3.565  0.00  0.00     0.210 HD
ENDBRANCH   6  54
TORSDOF 15
ENDMDL
MODEL 6
REMARK VINA RESULT:      -7.4      2.759      7.539
REMARK  15 active torsions:
REMARK  status: ('A' for Active; 'I' for Inactive)
REMARK    1  A    between atoms: C_2  and  C_3 
REMARK    2  A    between atoms: C_3  and  C_4 
REMARK    3  A    between atoms: C_3  and  O_51 
REMARK    4  A    between atoms: C_6  and  C_4 
REMARK    5  A    between atoms: C_7  and  C_9 
REMARK    6  A    between atoms: C_9  and  C_10 
REMARK    7  A    between atoms: C_10  and  C_12 
REMARK    8  A    between atoms: C_10  and  O_50 
REMARK    9  A    between atoms: C_13  and  C_14 
REMARK   10  A    between atoms: C_17  and  C_15 
REMARK   11  A    between atoms: C_21  and  O_33 
REMARK   12  A    between atoms: C_22  and  O_32 
REMARK   13  A    between atoms: C_25  and  O_30 
REMARK   14  A    between atoms: O_33  and  C_34 
REMARK       I    between atoms: C_34  and  N_36 
REMARK   15  A    between atoms: N_39  and  C_42 
ROOT
HETATM    1  C   UNK N   1      29.242  17.953   4.815  0.00  0.00     0.167 C 
HETATM    2  C   UNK N   1      28.591  16.840   3.965  0.00  0.00     0.038 C 
HETATM    3  C   UNK N   1      29.446  16.437   2.770  0.00  0.00    -0.021 C 
HETATM    4  C   UNK N   1      29.766  15.187   2.378  0.00  0.00     0.005 C 
HETATM    5  C   UNK N   1      29.277  13.970   3.099  0.00  0.00     0.190 C 
HETATM    6  C   UNK N   1      30.287  13.021   3.789  0.00  0.00     0.084 C 
HETATM    7  C   UNK N   1      31.149  13.738   4.814  0.00  0.00     0.043 C 
HETATM    8  C   UNK N   1      32.270  14.574   4.218  0.00  0.00     0.035 C 
HETATM    9  C   UNK N   1      33.064  15.156   5.376  0.00  0.00     0.127 C 
HETATM   10  C   UNK N   1      32.616  16.562   5.783  0.00  0.00     0.142 C 
HETATM   11  C   UNK N   1      31.130  16.748   5.816  0.00  0.00     0.261 C 
HETATM   12  O   UNK N   1      30.430  16.026   6.510  0.00  0.00    -0.265 OA
HETATM   13  O   UNK N   1      30.588  17.733   5.056  0.00  0.00    -0.311 OA
HETATM   14  C   UNK N   1      29.506  11.973   4.563  0.00  0.00     0.049 C 
HETATM   15  C   UNK N   1      27.977  15.728   4.811  0.00  0.00     0.017 C 
ENDROOT
BRANCH   1  16
HETATM   16  C   UNK N   1      28.428  18.384   6.041  0.00  0.00    -0.054 C 
HETATM   17  C   UNK N   1      27.570  19.416   5.974  0.00  0.00     0.005 C 
HETATM   18  C   UNK N   1      28.601  17.705   7.360  0.00  0.00     0.046 C 
BRANCH  17  19
HETATM   19  C   UNK N   1      27.377  20.160   4.716  0.00  0.00    -0.001 C 
HETATM   20  C   UNK N   1      26.223  20.155   4.029  0.00  0.00     0.010 C 
BRANCH  20  21
HETATM   21  C   UNK N   1      25.034  19.256   4.300  0.00  0.00     0.074 C 
HETATM   22  C   UNK N   1      25.265  17.838   3.813  0.00  0.00     0.050 C 
BRANCH  21  23
HETATM   23  C   UNK N   1      23.772  19.835   3.642  0.00  0.00     0.076 C 
BRANCH  23  24
HETATM   24  C   UNK N   1      22.769  18.710   3.437  0.00  0.00     0.154 A 
HETATM   25  C   UNK N   1      21.551  19.023   4.221  0.00  0.00     0.157 A 
HETATM   26  O   UNK N   1      21.584  19.116   2.811  0.00  0.00    -0.375 OA
BRANCH  25  27
HETATM   27  C   UNK N   1      21.134  17.679   4.821  0.00  0.00     0.042 C 
HETATM   28  C   UNK N   1      21.062  17.865   6.327  0.00  0.00     0.015 C 
BRANCH  27  29
HETATM   29  C   UNK N   1      19.878  16.983   4.263  0.00  0.00     0.124 C 
BRANCH  29  30
HETATM   30  C   UNK N   1      20.263  15.760   3.430  0.00  0.00     0.027 C 
HETATM   31  C   UNK N   1      19.562  14.491   3.879  0.00  0.00     0.007 C 
ENDBRANCH  29  30
BRANCH  29  32
HETATM   32  O   UNK N   1      19.185  17.847   3.414  0.00  0.00    -0.395 OA
HETATM   33  H   UNK N   1      18.224  17.927   3.315  0.00  0.00     0.210 HD
ENDBRANCH  29  32
ENDBRANCH  27  29
ENDBRANCH  25  27
ENDBRANCH  23  24
ENDBRANCH  21  23
BRANCH  21  34
HETATM   34  O   UNK N   1      24.843  19.199   5.681  0.00  0.00    -0.386 OA
HETATM   35  H   UNK N   1      24.483  19.512   6.526  0.00  0.00     0.211 HD
ENDBRANCH  21  34
ENDBRANCH  20  21
ENDBRANCH  17  19
ENDBRANCH   1  16
BRANCH   5  36
HETATM   36  O   UNK N   1      28.222  13.343   2.461  0.00  0.00    -0.291 OA
BRANCH  36  37
HETATM   37  C   UNK N   1      26.949  13.809   2.428  0.00  0.00     0.363 C 
HETATM   38  O   UNK N   1      26.673  14.814   1.789  0.00  0.00    -0.238 OA
HETATM   39  N   UNK N   1      25.973  13.113   3.060  0.00  0.00    -0.325 N 
HETATM   40  C   UNK N   1      26.303  11.933   3.834  0.00  0.00     0.158 C 
HETATM   41  C   UNK N   1      24.588  13.508   2.916  0.00  0.00     0.158 C 
HETATM   42  C   UNK N   1      25.640  12.003   5.219  0.00  0.00     0.293 C 
HETATM   43  N   UNK N   1      24.343  12.714   5.228  0.00  0.00     0.096 N 
HETATM   44  C   UNK N   1      23.720  12.724   3.892  0.00  0.00     0.293 C 
BRANCH  43  45
HETATM   45  C   UNK N   1      24.550  14.069   5.783  0.00  0.00     0.223 C 
HETATM   46  C   UNK N   1      25.363  14.035   7.081  0.00  0.00     0.036 C 
HETATM   47  C   UNK N   1      24.813  13.062   8.121  0.00  0.00     0.002 C 
HETATM   48  C   UNK N   1      23.421  13.442   8.602  0.00  0.00     0.000 C 
HETATM   49  C   UNK N   1      22.390  13.071   7.552  0.00  0.00     0.000 C 
HETATM   50  C   UNK N   1      22.069  14.246   6.634  0.00  0.00     0.002 C 
HETATM   51  C   UNK N   1      23.273  14.918   5.960  0.00  0.00     0.036 C 
ENDBRANCH  43  45
ENDBRANCH  36  37
ENDBRANCH   5  36
BRANCH   9  52
HETATM   52  O   UNK N   1      34.417  15.188   5.044  0.00  0.00    -0.395 OA
HETATM   53  H   UNK N   1      34.908  15.185   4.208  0.00  0.00     0.210 HD
ENDBRANCH   9  52
BRANCH   6  54
HETATM   54  O   UNK N   1      31.108  12.376   2.861  0.00  0.00    -0.387 OA
HETATM   55  H   UNK N   1      31.914  12.659   2.402  0.00  0.00     0.210 HD
ENDBRANCH   6  54
TORSDOF 15
ENDMDL
MODEL 7
REMARK VINA RESULT:      -7.3      6.956     10.075
REMARK  15 active torsions:
REMARK  status: ('A' for Active; 'I' for Inactive)
REMARK    1  A    between atoms: C_2  and  C_3 
REMARK    2  A    between atoms: C_3  and  C_4 
REMARK    3  A    between atoms: C_3  and  O_51 
REMARK    4  A    between atoms: C_6  and  C_4 
REMARK    5  A    between atoms: C_7  and  C_9 
REMARK    6  A    between atoms: C_9  and  C_10 
REMARK    7  A    between atoms: C_10  and  C_12 
REMARK    8  A    between atoms: C_10  and  O_50 
REMARK    9  A    between atoms: C_13  and  C_14 
REMARK   10  A    between atoms: C_17  and  C_15 
REMARK   11  A    between atoms: C_21  and  O_33 
REMARK   12  A    between atoms: C_22  and  O_32 
REMARK   13  A    between atoms: C_25  and  O_30 
REMARK   14  A    between atoms: O_33  and  C_34 
REMARK       I    between atoms: C_34  and  N_36 
REMARK   15  A    between atoms: N_39  and  C_42 
ROOT
HETATM    1  C   UNK N   1      33.150  15.956   8.720  0.00  0.00     0.167 C 
HETATM    2  C   UNK N   1      33.391  15.228   7.380  0.00  0.00     0.038 C 
HETATM    3  C   UNK N   1      32.243  14.300   6.999  0.00  0.00    -0.021 C 
HETATM    4  C   UNK N   1      31.626  14.213   5.804  0.00  0.00     0.005 C 
HETATM    5  C   UNK N   1      32.026  15.050   4.630  0.00  0.00     0.190 C 
HETATM    6  C   UNK N   1      31.030  16.074   4.034  0.00  0.00     0.084 C 
HETATM    7  C   UNK N   1      30.550  17.083   5.063  0.00  0.00     0.043 C 
HETATM    8  C   UNK N   1      29.499  16.550   6.024  0.00  0.00     0.035 C 
HETATM    9  C   UNK N   1      29.089  17.701   6.928  0.00  0.00     0.127 C 
HETATM   10  C   UNK N   1      29.862  17.751   8.248  0.00  0.00     0.142 C 
HETATM   11  C   UNK N   1      31.330  17.483   8.112  0.00  0.00     0.261 C 
HETATM   12  O   UNK N   1      32.017  18.166   7.367  0.00  0.00    -0.265 OA
HETATM   13  O   UNK N   1      31.868  16.469   8.833  0.00  0.00    -0.311 OA
HETATM   14  C   UNK N   1      31.752  16.880   2.968  0.00  0.00     0.049 C 
HETATM   15  C   UNK N   1      33.957  16.144   6.298  0.00  0.00     0.017 C 
ENDROOT
BRANCH   1  16
HETATM   16  C   UNK N   1      34.270  16.914   9.141  0.00  0.00    -0.054 C 
HETATM   17  C   UNK N   1      34.984  16.696  10.258  0.00  0.00     0.005 C 
HETATM   18  C   UNK N   1      34.566  18.148   8.352  0.00  0.00     0.046 C 
BRANCH  17  19
HETATM   19  C   UNK N   1      34.720  15.521  11.108  0.00  0.00    -0.001 C 
HETATM   20  C   UNK N   1      35.586  14.504  11.245  0.00  0.00     0.010 C 
BRANCH  20  21
HETATM   21  C   UNK N   1      36.840  14.291  10.423  0.00  0.00     0.074 C 
HETATM   22  C   UNK N   1      36.530  13.996   8.968  0.00  0.00     0.050 C 
BRANCH  21  23
HETATM   23  C   UNK N   1      37.677  13.149  11.021  0.00  0.00     0.076 C 
BRANCH  23  24
HETATM   24  C   UNK N   1      36.793  12.331  11.950  0.00  0.00     0.154 A 
HETATM   25  C   UNK N   1      37.605  11.227  12.514  0.00  0.00     0.157 A 
HETATM   26  O   UNK N   1      37.212  12.344  13.286  0.00  0.00    -0.375 OA
BRANCH  25  27
HETATM   27  C   UNK N   1      36.661  10.022  12.501  0.00  0.00     0.042 C 
HETATM   28  C   UNK N   1      37.399   8.885  11.816  0.00  0.00     0.015 C 
BRANCH  27  29
HETATM   29  C   UNK N   1      36.019   9.578  13.829  0.00  0.00     0.124 C 
BRANCH  29  30
HETATM   30  C   UNK N   1      34.590  10.110  13.942  0.00  0.00     0.027 C 
HETATM   31  C   UNK N   1      33.878  10.186  12.604  0.00  0.00     0.007 C 
ENDBRANCH  29  30
BRANCH  29  32
HETATM   32  O   UNK N   1      36.730  10.103  14.909  0.00  0.00    -0.395 OA
HETATM   33  H   UNK N   1      37.195   9.609  15.602  0.00  0.00     0.210 HD
ENDBRANCH  29  32
ENDBRANCH  27  29
ENDBRANCH  25  27
ENDBRANCH  23  24
ENDBRANCH  21  23
BRANCH  21  34
HETATM   34  O   UNK N   1      37.586  15.470  10.462  0.00  0.00    -0.386 OA
HETATM   35  H   UNK N   1      38.166  16.123  10.885  0.00  0.00     0.211 HD
ENDBRANCH  21  34
ENDBRANCH  20  21
ENDBRANCH  17  19
ENDBRANCH   1  16
BRANCH   5  36
HETATM   36  O   UNK N   1      32.789  14.364   3.703  0.00  0.00    -0.291 OA
BRANCH  36  37
HETATM   37  C   UNK N   1      32.775  13.018   3.532  0.00  0.00     0.363 C 
HETATM   38  O   UNK N   1      31.856  12.479   2.931  0.00  0.00    -0.238 OA
HETATM   39  N   UNK N   1      33.822  12.284   3.980  0.00  0.00    -0.325 N 
HETATM   40  C   UNK N   1      34.900  12.919   4.710  0.00  0.00     0.158 C 
HETATM   41  C   UNK N   1      33.899  10.870   3.680  0.00  0.00     0.158 C 
HETATM   42  C   UNK N   1      35.206  12.135   5.996  0.00  0.00     0.293 C 
HETATM   43  N   UNK N   1      34.976  10.679   5.880  0.00  0.00     0.096 N 
HETATM   44  C   UNK N   1      35.030  10.230   4.477  0.00  0.00     0.293 C 
BRANCH  43  45
HETATM   45  C   UNK N   1      33.698  10.347   6.548  0.00  0.00     0.223 C 
HETATM   46  C   UNK N   1      33.597  10.988   7.936  0.00  0.00     0.036 C 
HETATM   47  C   UNK N   1      34.806  10.707   8.826  0.00  0.00     0.002 C 
HETATM   48  C   UNK N   1      34.969   9.229   9.145  0.00  0.00     0.000 C 
HETATM   49  C   UNK N   1      35.548   8.501   7.946  0.00  0.00     0.000 C 
HETATM   50  C   UNK N   1      34.457   7.887   7.076  0.00  0.00     0.002 C 
HETATM   51  C   UNK N   1      33.352   8.845   6.612  0.00  0.00     0.036 C 
ENDBRANCH  43  45
ENDBRANCH  36  37
ENDBRANCH   5  36
BRANCH   9  52
HETATM   52  O   UNK N   1      27.726  17.615   7.202  0.00  0.00    -0.395 OA
HETATM   53  H   UNK N   1      27.087  16.885   7.236  0.00  0.00     0.210 HD
ENDBRANCH   9  52
BRANCH   6  54
HETATM   54  O   UNK N   1      29.927  15.445   3.452  0.00  0.00    -0.387 OA
HETATM   55  H   UNK N   1      28.975  15.510   3.628  0.00  0.00     0.210 HD
ENDBRANCH   6  54
TORSDOF 15
ENDMDL
MODEL 8
REMARK VINA RESULT:      -7.3      6.688      9.548
REMARK  15 active torsions:
REMARK  status: ('A' for Active; 'I' for Inactive)
REMARK    1  A    between atoms: C_2  and  C_3 
REMARK    2  A    between atoms: C_3  and  C_4 
REMARK    3  A    between atoms: C_3  and  O_51 
REMARK    4  A    between atoms: C_6  and  C_4 
REMARK    5  A    between atoms: C_7  and  C_9 
REMARK    6  A    between atoms: C_9  and  C_10 
REMARK    7  A    between atoms: C_10  and  C_12 
REMARK    8  A    between atoms: C_10  and  O_50 
REMARK    9  A    between atoms: C_13  and  C_14 
REMARK   10  A    between atoms: C_17  and  C_15 
REMARK   11  A    between atoms: C_21  and  O_33 
REMARK   12  A    between atoms: C_22  and  O_32 
REMARK   13  A    between atoms: C_25  and  O_30 
REMARK   14  A    between atoms: O_33  and  C_34 
REMARK       I    between atoms: C_34  and  N_36 
REMARK   15  A    between atoms: N_39  and  C_42 
ROOT
HETATM    1  C   UNK N   1      32.976  15.943   8.450  0.00  0.00     0.167 C 
HETATM    2  C   UNK N   1      32.749  15.724   6.939  0.00  0.00     0.038 C 
HETATM    3  C   UNK N   1      31.563  14.812   6.648  0.00  0.00    -0.021 C 
HETATM    4  C   UNK N   1      30.567  15.023   5.764  0.00  0.00     0.005 C 
HETATM    5  C   UNK N   1      30.509  16.240   4.896  0.00  0.00     0.190 C 
HETATM    6  C   UNK N   1      29.342  17.246   5.049  0.00  0.00     0.084 C 
HETATM    7  C   UNK N   1      29.230  17.793   6.461  0.00  0.00     0.043 C 
HETATM    8  C   UNK N   1      28.598  16.836   7.459  0.00  0.00     0.035 C 
HETATM    9  C   UNK N   1      28.504  17.565   8.789  0.00  0.00     0.127 C 
HETATM   10  C   UNK N   1      29.689  17.301   9.719  0.00  0.00     0.142 C 
HETATM   11  C   UNK N   1      31.022  17.306   9.034  0.00  0.00     0.261 C 
HETATM   12  O   UNK N   1      31.387  18.282   8.397  0.00  0.00    -0.265 OA
HETATM   13  O   UNK N   1      31.803  16.203   9.141  0.00  0.00    -0.311 OA
HETATM   14  C   UNK N   1      29.624  18.445   4.160  0.00  0.00     0.049 C 
HETATM   15  C   UNK N   1      32.876  17.010   6.125  0.00  0.00     0.017 C 
ENDROOT
BRANCH   1  16
HETATM   16  C   UNK N   1      34.149  16.867   8.796  0.00  0.00    -0.054 C 
HETATM   17  C   UNK N   1      34.808  16.743   9.960  0.00  0.00     0.005 C 
HETATM   18  C   UNK N   1      34.561  17.968   7.874  0.00  0.00     0.046 C 
BRANCH  17  19
HETATM   19  C   UNK N   1      34.430  15.706  10.938  0.00  0.00    -0.001 C 
HETATM   20  C   UNK N   1      35.232  14.681  11.268  0.00  0.00     0.010 C 
BRANCH  20  21
HETATM   21  C   UNK N   1      36.524  14.306  10.571  0.00  0.00     0.074 C 
HETATM   22  C   UNK N   1      36.299  13.895   9.128  0.00  0.00     0.050 C 
BRANCH  21  23
HETATM   23  C   UNK N   1      37.227  13.173  11.335  0.00  0.00     0.076 C 
BRANCH  23  24
HETATM   24  C   UNK N   1      36.680  13.128  12.754  0.00  0.00     0.154 A 
HETATM   25  C   UNK N   1      36.414  11.714  13.105  0.00  0.00     0.157 A 
HETATM   26  O   UNK N   1      37.499  12.435  13.653  0.00  0.00    -0.375 OA
BRANCH  25  27
HETATM   27  C   UNK N   1      35.090  11.760  13.871  0.00  0.00     0.042 C 
HETATM   28  C   UNK N   1      34.188  10.697  13.267  0.00  0.00     0.015 C 
BRANCH  27  29
HETATM   29  C   UNK N   1      35.127  11.681  15.409  0.00  0.00     0.124 C 
BRANCH  29  30
HETATM   30  C   UNK N   1      34.908  13.063  16.026  0.00  0.00     0.027 C 
HETATM   31  C   UNK N   1      34.938  13.046  17.543  0.00  0.00     0.007 C 
ENDBRANCH  29  30
BRANCH  29  32
HETATM   32  O   UNK N   1      36.380  11.242  15.840  0.00  0.00    -0.395 OA
HETATM   33  H   UNK N   1      36.997  11.709  16.424  0.00  0.00     0.210 HD
ENDBRANCH  29  32
ENDBRANCH  27  29
ENDBRANCH  25  27
ENDBRANCH  23  24
ENDBRANCH  21  23
BRANCH  21  34
HETATM   34  O   UNK N   1      37.350  15.430  10.563  0.00  0.00    -0.386 OA
HETATM   35  H   UNK N   1      38.199  15.892  10.661  0.00  0.00     0.211 HD
ENDBRANCH  21  34
ENDBRANCH  20  21
ENDBRANCH  17  19
ENDBRANCH   1  16
BRANCH   5  36
HETATM   36  O   UNK N   1      30.913  16.004   3.594  0.00  0.00    -0.291 OA
BRANCH  36  37
HETATM   37  C   UNK N   1      31.035  14.775   3.032  0.00  0.00     0.363 C 
HETATM   38  O   UNK N   1      30.040  14.124   2.743  0.00  0.00    -0.238 OA
HETATM   39  N   UNK N   1      32.269  14.303   2.735  0.00  0.00    -0.325 N 
HETATM   40  C   UNK N   1      33.448  15.064   3.096  0.00  0.00     0.158 C 
HETATM   41  C   UNK N   1      32.417  13.063   2.003  0.00  0.00     0.158 C 
HETATM   42  C   UNK N   1      34.467  14.161   3.809  0.00  0.00     0.293 C 
HETATM   43  N   UNK N   1      34.447  12.755   3.351  0.00  0.00     0.096 N 
HETATM   44  C   UNK N   1      33.879  12.633   1.997  0.00  0.00     0.293 C 
BRANCH  43  45
HETATM   45  C   UNK N   1      33.733  11.939   4.358  0.00  0.00     0.223 C 
HETATM   46  C   UNK N   1      34.200  12.254   5.782  0.00  0.00     0.036 C 
HETATM   47  C   UNK N   1      35.716  12.190   5.956  0.00  0.00     0.002 C 
HETATM   48  C   UNK N   1      36.276  10.797   5.715  0.00  0.00     0.000 C 
HETATM   49  C   UNK N   1      36.326  10.509   4.226  0.00  0.00     0.000 C 
HETATM   50  C   UNK N   1      35.082   9.767   3.751  0.00  0.00     0.002 C 
HETATM   51  C   UNK N   1      33.738  10.417   4.104  0.00  0.00     0.036 C 
ENDBRANCH  43  45
ENDBRANCH  36  37
ENDBRANCH   5  36
BRANCH   9  52
HETATM   52  O   UNK N   1      27.326  17.200   9.438  0.00  0.00    -0.395 OA
HETATM   53  H   UNK N   1      27.109  16.571  10.144  0.00  0.00     0.210 HD
ENDBRANCH   9  52
BRANCH   6  54
HETATM   54  O   UNK N   1      28.121  16.684   4.671  0.00  0.00    -0.387 OA
HETATM   55  H   UNK N   1      27.392  17.021   4.126  0.00  0.00     0.210 HD
ENDBRANCH   6  54
TORSDOF 15
ENDMDL
MODEL 9
REMARK VINA RESULT:      -7.3      7.617     11.593
REMARK  15 active torsions:
REMARK  status: ('A' for Active; 'I' for Inactive)
REMARK    1  A    between atoms: C_2  and  C_3 
REMARK    2  A    between atoms: C_3  and  C_4 
REMARK    3  A    between atoms: C_3  and  O_51 
REMARK    4  A    between atoms: C_6  and  C_4 
REMARK    5  A    between atoms: C_7  and  C_9 
REMARK    6  A    between atoms: C_9  and  C_10 
REMARK    7  A    between atoms: C_10  and  C_12 
REMARK    8  A    between atoms: C_10  and  O_50 
REMARK    9  A    between atoms: C_13  and  C_14 
REMARK   10  A    between atoms: C_17  and  C_15 
REMARK   11  A    between atoms: C_21  and  O_33 
REMARK   12  A    between atoms: C_22  and  O_32 
REMARK   13  A    between atoms: C_25  and  O_30 
REMARK   14  A    between atoms: O_33  and  C_34 
REMARK       I    between atoms: C_34  and  N_36 
REMARK   15  A    between atoms: N_39  and  C_42 
ROOT
HETATM    1  C   UNK N   1      32.002  15.651   7.543  0.00  0.00     0.167 C 
HETATM    2  C   UNK N   1      32.574  15.011   8.826  0.00  0.00     0.038 C 
HETATM    3  C   UNK N   1      32.870  13.525   8.661  0.00  0.00    -0.021 C 
HETATM    4  C   UNK N   1      33.995  12.872   9.015  0.00  0.00     0.005 C 
HETATM    5  C   UNK N   1      35.152  13.561   9.669  0.00  0.00     0.190 C 
HETATM    6  C   UNK N   1      36.520  13.630   8.948  0.00  0.00     0.084 C 
HETATM    7  C   UNK N   1      36.423  14.286   7.581  0.00  0.00     0.043 C 
HETATM    8  C   UNK N   1      35.843  13.394   6.495  0.00  0.00     0.035 C 
HETATM    9  C   UNK N   1      35.884  14.180   5.195  0.00  0.00     0.127 C 
HETATM   10  C   UNK N   1      34.582  14.921   4.884  0.00  0.00     0.142 C 
HETATM   11  C   UNK N   1      33.962  15.597   6.068  0.00  0.00     0.261 C 
HETATM   12  O   UNK N   1      34.595  16.418   6.715  0.00  0.00    -0.265 OA
HETATM   13  O   UNK N   1      32.687  15.274   6.399  0.00  0.00    -0.311 OA
HETATM   14  C   UNK N   1      37.448  14.512   9.766  0.00  0.00     0.049 C 
HETATM   15  C   UNK N   1      33.632  15.878   9.503  0.00  0.00     0.017 C 
ENDROOT
BRANCH   1  16
HETATM   16  C   UNK N   1      31.702  17.150   7.652  0.00  0.00    -0.054 C 
HETATM   17  C   UNK N   1      30.466  17.626   7.426  0.00  0.00     0.005 C 
HETATM   18  C   UNK N   1      32.783  18.133   7.960  0.00  0.00     0.046 C 
BRANCH  17  19
HETATM   19  C   UNK N   1      29.356  16.720   7.078  0.00  0.00    -0.001 C 
HETATM   20  C   UNK N   1      28.552  16.916   6.021  0.00  0.00     0.010 C 
BRANCH  20  21
HETATM   21  C   UNK N   1      28.509  18.160   5.158  0.00  0.00     0.074 C 
HETATM   22  C   UNK N   1      28.165  19.402   5.958  0.00  0.00     0.050 C 
BRANCH  21  23
HETATM   23  C   UNK N   1      27.497  17.978   4.016  0.00  0.00     0.076 C 
BRANCH  23  24
HETATM   24  C   UNK N   1      26.094  17.963   4.604  0.00  0.00     0.154 A 
HETATM   25  C   UNK N   1      25.123  18.103   3.495  0.00  0.00     0.157 A 
HETATM   26  O   UNK N   1      25.314  16.881   4.180  0.00  0.00    -0.375 OA
BRANCH  25  27
HETATM   27  C   UNK N   1      24.055  19.051   4.047  0.00  0.00     0.042 C 
HETATM   28  C   UNK N   1      24.074  20.298   3.179  0.00  0.00     0.015 C 
BRANCH  27  29
HETATM   29  C   UNK N   1      22.627  18.510   4.253  0.00  0.00     0.124 C 
BRANCH  29  30
HETATM   30  C   UNK N   1      22.377  18.195   5.728  0.00  0.00     0.027 C 
HETATM   31  C   UNK N   1      22.197  16.713   5.996  0.00  0.00     0.007 C 
ENDBRANCH  29  30
BRANCH  29  32
HETATM   32  O   UNK N   1      22.458  17.315   3.552  0.00  0.00    -0.395 OA
HETATM   33  H   UNK N   1      22.118  16.475   3.897  0.00  0.00     0.210 HD
ENDBRANCH  29  32
ENDBRANCH  27  29
ENDBRANCH  25  27
ENDBRANCH  23  24
ENDBRANCH  21  23
BRANCH  21  34
HETATM   34  O   UNK N   1      29.780  18.351   4.614  0.00  0.00    -0.386 OA
HETATM   35  H   UNK N   1      30.718  18.137   4.492  0.00  0.00     0.211 HD
ENDBRANCH  21  34
ENDBRANCH  20  21
ENDBRANCH  17  19
ENDBRANCH   1  16
BRANCH   5  36
HETATM   36  O   UNK N   1      35.217  13.345  11.034  0.00  0.00    -0.291 OA
BRANCH  36  37
HETATM   37  C   UNK N   1      35.224  12.124  11.625  0.00  0.00     0.363 C 
HETATM   38  O   UNK N   1      34.555  11.209  11.166  0.00  0.00    -0.238 OA
HETATM   39  N   UNK N   1      36.030  11.912  12.693  0.00  0.00    -0.325 N 
HETATM   40  C   UNK N   1      36.807  13.001  13.250  0.00  0.00     0.158 C 
HETATM   41  C   UNK N   1      36.166  10.582  13.249  0.00  0.00     0.158 C 
HETATM   42  C   UNK N   1      36.627  13.058  14.775  0.00  0.00     0.293 C 
HETATM   43  N   UNK N   1      36.410  11.737  15.403  0.00  0.00     0.096 N 
HETATM   44  C   UNK N   1      36.933  10.644  14.565  0.00  0.00     0.293 C 
BRANCH  43  45
HETATM   45  C   UNK N   1      34.970  11.593  15.716  0.00  0.00     0.223 C 
HETATM   46  C   UNK N   1      34.457  12.748  16.581  0.00  0.00     0.036 C 
HETATM   47  C   UNK N   1      35.299  12.995  17.832  0.00  0.00     0.002 C 
HETATM   48  C   UNK N   1      35.282  11.817  18.793  0.00  0.00     0.000 C 
HETATM   49  C   UNK N   1      36.183  10.711  18.273  0.00  0.00     0.000 C 
HETATM   50  C   UNK N   1      35.404   9.679  17.465  0.00  0.00     0.002 C 
HETATM   51  C   UNK N   1      34.553  10.233  16.314  0.00  0.00     0.036 C 
ENDBRANCH  43  45
ENDBRANCH  36  37
ENDBRANCH   5  36
BRANCH   9  52
HETATM   52  O   UNK N   1      36.181  13.319   4.140  0.00  0.00    -0.395 OA
HETATM   53  H   UNK N   1      36.999  13.062   3.686  0.00  0.00     0.210 HD
ENDBRANCH   9  52
BRANCH   6  54
HETATM   54  O   UNK N   1      37.101  12.367   8.816  0.00  0.00    -0.387 OA
HETATM   55  H   UNK N   1      37.069  11.577   9.378  0.00  0.00     0.210 HD
ENDBRANCH   6  54
TORSDOF 15
ENDMDL
