MODEL 1
REMARK VINA RESULT:      -7.0      0.000      0.000
REMARK  2 active torsions:
REMARK  status: ('A' for Active; 'I' for Inactive)
REMARK    1  A    between atoms: C_2  and  N_3 
REMARK    2  A    between atoms: C_7  and  C_10 
REMARK       I    between atoms: C_19  and  N_22 
ROOT
HETATM    1  N   UNK N   1      32.406  17.354   5.389  0.00  0.00    -0.299 N 
HETATM    2  C   UNK N   1      31.043  17.498   5.610  0.00  0.00     0.138 A 
HETATM    3  C   UNK N   1      30.518  17.336   6.907  0.00  0.00     0.033 A 
HETATM    4  C   UNK N   1      31.361  17.034   7.959  0.00  0.00     0.036 A 
HETATM    5  C   UNK N   1      32.723  16.887   7.760  0.00  0.00     0.061 A 
HETATM    6  C   UNK N   1      33.245  17.050   6.458  0.00  0.00     0.261 A 
HETATM    7  O   UNK N   1      34.446  16.923   6.269  0.00  0.00    -0.267 OA
HETATM    8  C   UNK N   1      29.139  17.484   7.113  0.00  0.00     0.036 A 
HETATM    9  N   UNK N   1      28.335  17.780   6.063  0.00  0.00    -0.195 N 
ATOM     10  HN  UNK N   1      27.332  17.888   6.212  1.00  0.00     0.184 HD
HETATM   11  C   UNK N   1      28.846  17.935   4.815  0.00  0.00     0.677 A 
HETATM   12  N   UNK N   1      30.181  17.795   4.597  0.00  0.00    -0.176 N 
ATOM     13  HN  UNK N   1      30.546  17.915   3.653  1.00  0.00     0.186 HD
HETATM   14  N   UNK N   1      27.987  18.243   3.743  0.00  0.00    -0.234 N 
HETATM   15  C   UNK N   1      28.534  17.322   8.470  0.00  0.00     0.070 C 
HETATM   16  H   UNK N   1      28.353  18.356   2.835  0.00  0.00     0.174 HD
HETATM   17  H   UNK N   1      27.021  18.344   3.900  0.00  0.00     0.174 HD
ENDROOT
BRANCH   5  18
HETATM   18  C   UNK N   1      33.550  16.564   8.944  0.00  0.00     0.065 A 
HETATM   19  C   UNK N   1      33.653  15.351   9.594  0.00  0.00     0.050 A 
HETATM   20  C   UNK N   1      34.548  15.588  10.623  0.00  0.00     0.109 A 
HETATM   21  N   UNK N   1      34.941  16.876  10.569  0.00  0.00    -0.311 N 
HETATM   22  N   UNK N   1      34.338  17.466   9.554  0.00  0.00    -0.300 N 
ATOM     23  HN  UNK N   1      35.598  17.323  11.208  1.00  0.00     0.186 HD
HETATM   24  H   UNK N   1      34.447  18.407   9.288  0.00  0.00     0.187 HD
ENDBRANCH   5  18
BRANCH   1  25
HETATM   25  C   UNK N   1      33.065  17.503   4.067  0.00  0.00     0.129 C 
HETATM   26  C   UNK N   1      33.059  16.311   3.122  0.00  0.00     0.027 C 
ENDBRANCH   1  25
TORSDOF 2
ENDMDL
MODEL 2
REMARK VINA RESULT:      -6.4      8.235     12.251
REMARK  2 active torsions:
REMARK  status: ('A' for Active; 'I' for Inactive)
REMARK    1  A    between atoms: C_2  and  N_3 
REMARK    2  A    between atoms: C_7  and  C_10 
REMARK       I    between atoms: C_19  and  N_22 
ROOT
HETATM    1  N   UNK N   1      35.623  10.663  16.116  0.00  0.00    -0.299 N 
HETATM    2  C   UNK N   1      35.472  11.488  17.221  0.00  0.00     0.138 A 
HETATM    3  C   UNK N   1      35.590  12.885  17.080  0.00  0.00     0.033 A 
HETATM    4  C   UNK N   1      35.858  13.432  15.839  0.00  0.00     0.036 A 
HETATM    5  C   UNK N   1      36.012  12.626  14.725  0.00  0.00     0.061 A 
HETATM    6  C   UNK N   1      35.893  11.226  14.872  0.00  0.00     0.261 A 
HETATM    7  O   UNK N   1      36.027  10.504  13.895  0.00  0.00    -0.267 OA
HETATM    8  C   UNK N   1      35.435  13.705  18.206  0.00  0.00     0.036 A 
HETATM    9  N   UNK N   1      35.173  13.143  19.411  0.00  0.00    -0.195 N 
ATOM     10  HN  UNK N   1      35.060  13.739  20.230  1.00  0.00     0.184 HD
HETATM   11  C   UNK N   1      35.060  11.797  19.542  0.00  0.00     0.677 A 
HETATM   12  N   UNK N   1      35.208  10.986  18.460  0.00  0.00    -0.176 N 
ATOM     13  HN  UNK N   1      35.120   9.977  18.578  1.00  0.00     0.186 HD
HETATM   14  N   UNK N   1      34.788  11.239  20.806  0.00  0.00    -0.234 N 
HETATM   15  C   UNK N   1      35.551  15.192  18.107  0.00  0.00     0.070 C 
HETATM   16  H   UNK N   1      34.705  10.262  20.906  0.00  0.00     0.174 HD
HETATM   17  H   UNK N   1      34.680  11.825  21.590  0.00  0.00     0.174 HD
ENDROOT
BRANCH   5  18
HETATM   18  C   UNK N   1      36.296  13.297  13.437  0.00  0.00     0.065 A 
HETATM   19  C   UNK N   1      35.519  14.233  12.786  0.00  0.00     0.050 A 
HETATM   20  C   UNK N   1      36.234  14.533  11.638  0.00  0.00     0.109 A 
HETATM   21  N   UNK N   1      37.367  13.805  11.629  0.00  0.00    -0.311 N 
HETATM   22  N   UNK N   1      37.405  13.058  12.716  0.00  0.00    -0.300 N 
ATOM     23  HN  UNK N   1      38.080  13.827  10.900  1.00  0.00     0.186 HD
HETATM   24  H   UNK N   1      38.125  12.431  12.959  0.00  0.00     0.187 HD
ENDBRANCH   5  18
BRANCH   1  25
HETATM   25  C   UNK N   1      35.519   9.182  16.151  0.00  0.00     0.129 C 
HETATM   26  C   UNK N   1      36.748   8.384  16.559  0.00  0.00     0.027 C 
ENDBRANCH   1  25
TORSDOF 2
ENDMDL
MODEL 3
REMARK VINA RESULT:      -6.3      2.167      6.318
REMARK  2 active torsions:
REMARK  status: ('A' for Active; 'I' for Inactive)
REMARK    1  A    between atoms: C_2  and  N_3 
REMARK    2  A    between atoms: C_7  and  C_10 
REMARK       I    between atoms: C_19  and  N_22 
ROOT
HETATM    1  N   UNK N   1      31.027  17.538   8.016  0.00  0.00    -0.299 N 
HETATM    2  C   UNK N   1      32.332  17.087   8.149  0.00  0.00     0.138 A 
HETATM    3  C   UNK N   1      32.954  16.401   7.087  0.00  0.00     0.033 A 
HETATM    4  C   UNK N   1      32.262  16.178   5.912  0.00  0.00     0.036 A 
HETATM    5  C   UNK N   1      30.959  16.620   5.759  0.00  0.00     0.061 A 
HETATM    6  C   UNK N   1      30.340  17.307   6.827  0.00  0.00     0.261 A 
HETATM    7  O   UNK N   1      29.190  17.702   6.704  0.00  0.00    -0.267 OA
HETATM    8  C   UNK N   1      34.273  15.952   7.238  0.00  0.00     0.036 A 
HETATM    9  N   UNK N   1      34.929  16.184   8.401  0.00  0.00    -0.195 N 
ATOM     10  HN  UNK N   1      35.888  15.857   8.511  1.00  0.00     0.184 HD
HETATM   11  C   UNK N   1      34.326  16.845   9.422  0.00  0.00     0.677 A 
HETATM   12  N   UNK N   1      33.046  17.288   9.292  0.00  0.00    -0.176 N 
ATOM     13  HN  UNK N   1      32.610  17.782  10.070  1.00  0.00     0.186 HD
HETATM   14  N   UNK N   1      35.031  17.072  10.619  0.00  0.00    -0.234 N 
HETATM   15  C   UNK N   1      34.975  15.220   6.140  0.00  0.00     0.070 C 
HETATM   16  H   UNK N   1      34.597  17.551  11.363  0.00  0.00     0.174 HD
HETATM   17  H   UNK N   1      35.957  16.752  10.713  0.00  0.00     0.174 HD
ENDROOT
BRANCH   5  18
HETATM   18  C   UNK N   1      30.295  16.337   4.467  0.00  0.00     0.065 A 
HETATM   19  C   UNK N   1      30.144  15.113   3.847  0.00  0.00     0.050 A 
HETATM   20  C   UNK N   1      29.460  15.403   2.679  0.00  0.00     0.109 A 
HETATM   21  N   UNK N   1      29.227  16.729   2.628  0.00  0.00    -0.311 N 
HETATM   22  N   UNK N   1      29.732  17.294   3.709  0.00  0.00    -0.300 N 
ATOM     23  HN  UNK N   1      28.741  17.218   1.877  1.00  0.00     0.186 HD
HETATM   24  H   UNK N   1      29.702  18.255   3.924  0.00  0.00     0.187 HD
ENDBRANCH   5  18
BRANCH   1  25
HETATM   25  C   UNK N   1      30.277  18.269   9.068  0.00  0.00     0.129 C 
HETATM   26  C   UNK N   1      29.336  17.477   9.963  0.00  0.00     0.027 C 
ENDBRANCH   1  25
TORSDOF 2
ENDMDL
MODEL 4
REMARK VINA RESULT:      -6.3      2.364      6.063
REMARK  2 active torsions:
REMARK  status: ('A' for Active; 'I' for Inactive)
REMARK    1  A    between atoms: C_2  and  N_3 
REMARK    2  A    between atoms: C_7  and  C_10 
REMARK       I    between atoms: C_19  and  N_22 
ROOT
HETATM    1  N   UNK N   1      30.493  16.897   5.184  0.00  0.00    -0.299 N 
HETATM    2  C   UNK N   1      30.899  17.079   6.498  0.00  0.00     0.138 A 
HETATM    3  C   UNK N   1      30.031  17.685   7.428  0.00  0.00     0.033 A 
HETATM    4  C   UNK N   1      28.774  18.098   7.030  0.00  0.00     0.036 A 
HETATM    5  C   UNK N   1      28.349  17.925   5.723  0.00  0.00     0.061 A 
HETATM    6  C   UNK N   1      29.223  17.317   4.795  0.00  0.00     0.261 A 
HETATM    7  O   UNK N   1      28.860  17.159   3.639  0.00  0.00    -0.267 OA
HETATM    8  C   UNK N   1      30.457  17.861   8.752  0.00  0.00     0.036 A 
HETATM    9  N   UNK N   1      31.695  17.447   9.116  0.00  0.00    -0.195 N 
ATOM     10  HN  UNK N   1      32.006  17.575  10.078  1.00  0.00     0.184 HD
HETATM   11  C   UNK N   1      32.528  16.864   8.217  0.00  0.00     0.677 A 
HETATM   12  N   UNK N   1      32.131  16.685   6.928  0.00  0.00    -0.176 N 
ATOM     13  HN  UNK N   1      32.770  16.245   6.267  1.00  0.00     0.186 HD
HETATM   14  N   UNK N   1      33.809  16.443   8.622  0.00  0.00    -0.234 N 
HETATM   15  C   UNK N   1      29.573  18.498   9.775  0.00  0.00     0.070 C 
HETATM   16  H   UNK N   1      34.417  16.020   7.973  0.00  0.00     0.174 HD
HETATM   17  H   UNK N   1      34.097  16.572   9.554  0.00  0.00     0.174 HD
ENDROOT
BRANCH   5  18
HETATM   18  C   UNK N   1      26.988  18.397   5.386  0.00  0.00     0.065 A 
HETATM   19  C   UNK N   1      26.632  19.600   4.811  0.00  0.00     0.050 A 
HETATM   20  C   UNK N   1      25.253  19.538   4.712  0.00  0.00     0.109 A 
HETATM   21  N   UNK N   1      24.834  18.356   5.206  0.00  0.00    -0.311 N 
HETATM   22  N   UNK N   1      25.883  17.666   5.613  0.00  0.00    -0.300 N 
ATOM     23  HN  UNK N   1      23.864  18.045   5.257  1.00  0.00     0.186 HD
HETATM   24  H   UNK N   1      25.861  16.768   6.016  0.00  0.00     0.187 HD
ENDBRANCH   5  18
BRANCH   1  25
HETATM   25  C   UNK N   1      31.324  16.272   4.124  0.00  0.00     0.129 C 
HETATM   26  C   UNK N   1      32.313  17.150   3.374  0.00  0.00     0.027 C 
ENDBRANCH   1  25
TORSDOF 2
ENDMDL
MODEL 5
REMARK VINA RESULT:      -6.1      2.569      4.366
REMARK  2 active torsions:
REMARK  status: ('A' for Active; 'I' for Inactive)
REMARK    1  A    between atoms: C_2  and  N_3 
REMARK    2  A    between atoms: C_7  and  C_10 
REMARK       I    between atoms: C_19  and  N_22 
ROOT
HETATM    1  N   UNK N   1      33.518  16.120   6.575  0.00  0.00    -0.299 N 
HETATM    2  C   UNK N   1      33.044  15.970   5.280  0.00  0.00     0.138 A 
HETATM    3  C   UNK N   1      31.721  16.338   4.966  0.00  0.00     0.033 A 
HETATM    4  C   UNK N   1      30.896  16.849   5.950  0.00  0.00     0.036 A 
HETATM    5  C   UNK N   1      31.350  17.006   7.248  0.00  0.00     0.061 A 
HETATM    6  C   UNK N   1      32.677  16.636   7.558  0.00  0.00     0.261 A 
HETATM    7  O   UNK N   1      33.090  16.770   8.701  0.00  0.00    -0.267 OA
HETATM    8  C   UNK N   1      31.257  16.180   3.653  0.00  0.00     0.036 A 
HETATM    9  N   UNK N   1      32.087  15.676   2.708  0.00  0.00    -0.195 N 
ATOM     10  HN  UNK N   1      31.750  15.561   1.752  1.00  0.00     0.184 HD
HETATM   11  C   UNK N   1      33.361  15.323   3.014  0.00  0.00     0.677 A 
HETATM   12  N   UNK N   1      33.827  15.470   4.284  0.00  0.00    -0.176 N 
ATOM     13  HN  UNK N   1      34.787  15.199   4.496  1.00  0.00     0.186 HD
HETATM   14  N   UNK N   1      34.201  14.803   2.012  0.00  0.00    -0.234 N 
HETATM   15  C   UNK N   1      29.862  16.556   3.271  0.00  0.00     0.070 C 
HETATM   16  H   UNK N   1      35.127  14.545   2.230  0.00  0.00     0.174 HD
HETATM   17  H   UNK N   1      33.865  14.696   1.094  0.00  0.00     0.174 HD
ENDROOT
BRANCH   5  18
HETATM   18  C   UNK N   1      30.398  17.560   8.237  0.00  0.00     0.065 A 
HETATM   19  C   UNK N   1      29.021  17.473   8.220  0.00  0.00     0.050 A 
HETATM   20  C   UNK N   1      28.621  18.151   9.360  0.00  0.00     0.109 A 
HETATM   21  N   UNK N   1      29.715  18.607  10.001  0.00  0.00    -0.311 N 
HETATM   22  N   UNK N   1      30.789  18.250   9.322  0.00  0.00    -0.300 N 
ATOM     23  HN  UNK N   1      29.714  19.141  10.870  1.00  0.00     0.186 HD
HETATM   24  H   UNK N   1      31.721  18.453   9.569  0.00  0.00     0.187 HD
ENDBRANCH   5  18
BRANCH   1  25
HETATM   25  C   UNK N   1      34.891  15.765   7.016  0.00  0.00     0.129 C 
HETATM   26  C   UNK N   1      35.164  14.328   7.434  0.00  0.00     0.027 C 
ENDBRANCH   1  25
TORSDOF 2
ENDMDL
MODEL 6
REMARK VINA RESULT:      -6.0     11.751     14.781
REMARK  2 active torsions:
REMARK  status: ('A' for Active; 'I' for Inactive)
REMARK    1  A    between atoms: C_2  and  N_3 
REMARK    2  A    between atoms: C_7  and  C_10 
REMARK       I    between atoms: C_19  and  N_22 
ROOT
HETATM    1  N   UNK N   1      29.541  21.119  -6.809  0.00  0.00    -0.299 N 
HETATM    2  C   UNK N   1      30.278  21.100  -5.633  0.00  0.00     0.138 A 
HETATM    3  C   UNK N   1      30.000  22.027  -4.610  0.00  0.00     0.033 A 
HETATM    4  C   UNK N   1      28.991  22.956  -4.778  0.00  0.00     0.036 A 
HETATM    5  C   UNK N   1      28.244  22.993  -5.943  0.00  0.00     0.061 A 
HETATM    6  C   UNK N   1      28.527  22.061  -6.966  0.00  0.00     0.261 A 
HETATM    7  O   UNK N   1      27.874  22.083  -7.999  0.00  0.00    -0.267 OA
HETATM    8  C   UNK N   1      30.754  21.993  -3.429  0.00  0.00     0.036 A 
HETATM    9  N   UNK N   1      31.737  21.072  -3.290  0.00  0.00    -0.195 N 
ATOM     10  HN  UNK N   1      32.286  21.047  -2.431  1.00  0.00     0.184 HD
HETATM   11  C   UNK N   1      32.002  20.180  -4.279  0.00  0.00     0.677 A 
HETATM   12  N   UNK N   1      31.280  20.198  -5.432  0.00  0.00    -0.176 N 
ATOM     13  HN  UNK N   1      31.494  19.521  -6.163  1.00  0.00     0.186 HD
HETATM   14  N   UNK N   1      33.030  19.233  -4.108  0.00  0.00    -0.234 N 
HETATM   15  C   UNK N   1      30.496  22.955  -2.315  0.00  0.00     0.070 C 
HETATM   16  H   UNK N   1      33.226  18.584  -4.823  0.00  0.00     0.174 HD
HETATM   17  H   UNK N   1      33.553  19.219  -3.274  0.00  0.00     0.174 HD
ENDROOT
BRANCH   5  18
HETATM   18  C   UNK N   1      27.184  24.021  -6.036  0.00  0.00     0.065 A 
HETATM   19  C   UNK N   1      27.339  25.392  -6.042  0.00  0.00     0.050 A 
HETATM   20  C   UNK N   1      26.048  25.883  -6.146  0.00  0.00     0.109 A 
HETATM   21  N   UNK N   1      25.191  24.845  -6.198  0.00  0.00    -0.311 N 
HETATM   22  N   UNK N   1      25.878  23.719  -6.132  0.00  0.00    -0.300 N 
ATOM     23  HN  UNK N   1      24.177  24.916  -6.277  1.00  0.00     0.186 HD
HETATM   24  H   UNK N   1      25.497  22.811  -6.150  0.00  0.00     0.187 HD
ENDBRANCH   5  18
BRANCH   1  25
HETATM   25  C   UNK N   1      29.749  20.192  -7.949  0.00  0.00     0.129 C 
HETATM   26  C   UNK N   1      29.191  18.781  -7.840  0.00  0.00     0.027 C 
ENDBRANCH   1  25
TORSDOF 2
ENDMDL
MODEL 7
REMARK VINA RESULT:      -5.9     13.623     16.057
REMARK  2 active torsions:
REMARK  status: ('A' for Active; 'I' for Inactive)
REMARK    1  A    between atoms: C_2  and  N_3 
REMARK    2  A    between atoms: C_7  and  C_10 
REMARK       I    between atoms: C_19  and  N_22 
ROOT
HETATM    1  N   UNK N   1      27.064  26.211  -5.254  0.00  0.00    -0.299 N 
HETATM    2  C   UNK N   1      28.310  25.882  -4.741  0.00  0.00     0.138 A 
HETATM    3  C   UNK N   1      28.804  24.569  -4.871  0.00  0.00     0.033 A 
HETATM    4  C   UNK N   1      28.044  23.608  -5.511  0.00  0.00     0.036 A 
HETATM    5  C   UNK N   1      26.798  23.915  -6.030  0.00  0.00     0.061 A 
HETATM    6  C   UNK N   1      26.308  25.233  -5.897  0.00  0.00     0.261 A 
HETATM    7  O   UNK N   1      25.209  25.517  -6.350  0.00  0.00    -0.267 OA
HETATM    8  C   UNK N   1      30.065  24.254  -4.347  0.00  0.00     0.036 A 
HETATM    9  N   UNK N   1      30.789  25.215  -3.725  0.00  0.00    -0.195 N 
ATOM     10  HN  UNK N   1      31.706  24.986  -3.343  1.00  0.00     0.184 HD
HETATM   11  C   UNK N   1      30.310  26.479  -3.601  0.00  0.00     0.677 A 
HETATM   12  N   UNK N   1      29.087  26.803  -4.104  0.00  0.00    -0.176 N 
ATOM     13  HN  UNK N   1      28.744  27.757  -4.001  1.00  0.00     0.186 HD
HETATM   14  N   UNK N   1      31.083  27.458  -2.949  0.00  0.00    -0.234 N 
HETATM   15  C   UNK N   1      30.631  22.876  -4.461  0.00  0.00     0.070 C 
HETATM   16  H   UNK N   1      30.739  28.377  -2.857  0.00  0.00     0.174 HD
HETATM   17  H   UNK N   1      31.967  27.225  -2.585  0.00  0.00     0.174 HD
ENDROOT
BRANCH   5  18
HETATM   18  C   UNK N   1      26.055  22.824  -6.699  0.00  0.00     0.065 A 
HETATM   19  C   UNK N   1      26.496  22.008  -7.720  0.00  0.00     0.050 A 
HETATM   20  C   UNK N   1      25.424  21.168  -7.974  0.00  0.00     0.109 A 
HETATM   21  N   UNK N   1      24.415  21.486  -7.140  0.00  0.00    -0.311 N 
HETATM   22  N   UNK N   1      24.796  22.487  -6.368  0.00  0.00    -0.300 N 
ATOM     23  HN  UNK N   1      23.505  21.027  -7.108  1.00  0.00     0.186 HD
HETATM   24  H   UNK N   1      24.251  22.915  -5.669  0.00  0.00     0.187 HD
ENDBRANCH   5  18
BRANCH   1  25
HETATM   25  C   UNK N   1      26.448  27.559  -5.173  0.00  0.00     0.129 C 
HETATM   26  C   UNK N   1      25.675  27.923  -3.914  0.00  0.00     0.027 C 
ENDBRANCH   1  25
TORSDOF 2
ENDMDL
MODEL 8
REMARK VINA RESULT:      -5.9     13.469     15.688
REMARK  2 active torsions:
REMARK  status: ('A' for Active; 'I' for Inactive)
REMARK    1  A    between atoms: C_2  and  N_3 
REMARK    2  A    between atoms: C_7  and  C_10 
REMARK       I    between atoms: C_19  and  N_22 
ROOT
HETATM    1  N   UNK N   1      26.758  23.336  -6.782  0.00  0.00    -0.299 N 
HETATM    2  C   UNK N   1      27.971  22.828  -6.338  0.00  0.00     0.138 A 
HETATM    3  C   UNK N   1      28.677  23.485  -5.310  0.00  0.00     0.033 A 
HETATM    4  C   UNK N   1      28.160  24.636  -4.746  0.00  0.00     0.036 A 
HETATM    5  C   UNK N   1      26.952  25.158  -5.175  0.00  0.00     0.061 A 
HETATM    6  C   UNK N   1      26.248  24.496  -6.205  0.00  0.00     0.261 A 
HETATM    7  O   UNK N   1      25.181  24.948  -6.592  0.00  0.00    -0.267 OA
HETATM    8  C   UNK N   1      29.900  22.959  -4.873  0.00  0.00     0.036 A 
HETATM    9  N   UNK N   1      30.384  21.830  -5.444  0.00  0.00    -0.195 N 
ATOM     10  HN  UNK N   1      31.274  21.446  -5.126  1.00  0.00     0.184 HD
HETATM   11  C   UNK N   1      29.700  21.200  -6.433  0.00  0.00     0.677 A 
HETATM   12  N   UNK N   1      28.511  21.697  -6.870  0.00  0.00    -0.176 N 
ATOM     13  HN  UNK N   1      28.012  21.210  -7.614  1.00  0.00     0.186 HD
HETATM   14  N   UNK N   1      30.226  20.028  -7.009  0.00  0.00    -0.234 N 
HETATM   15  C   UNK N   1      30.686  23.619  -3.787  0.00  0.00     0.070 C 
HETATM   16  H   UNK N   1      29.734  19.568  -7.727  0.00  0.00     0.174 HD
HETATM   17  H   UNK N   1      31.086  19.668  -6.693  0.00  0.00     0.174 HD
ENDROOT
BRANCH   5  18
HETATM   18  C   UNK N   1      26.475  26.394  -4.514  0.00  0.00     0.065 A 
HETATM   19  C   UNK N   1      26.167  27.601  -5.107  0.00  0.00     0.050 A 
HETATM   20  C   UNK N   1      25.775  28.410  -4.053  0.00  0.00     0.109 A 
HETATM   21  N   UNK N   1      25.854  27.703  -2.909  0.00  0.00    -0.311 N 
HETATM   22  N   UNK N   1      26.278  26.484  -3.187  0.00  0.00    -0.300 N 
ATOM     23  HN  UNK N   1      25.625  28.052  -1.979  1.00  0.00     0.186 HD
HETATM   24  H   UNK N   1      26.424  25.762  -2.534  0.00  0.00     0.187 HD
ENDBRANCH   5  18
BRANCH   1  25
HETATM   25  C   UNK N   1      25.933  22.727  -7.855  0.00  0.00     0.129 C 
HETATM   26  C   UNK N   1      24.955  21.626  -7.474  0.00  0.00     0.027 C 
ENDBRANCH   1  25
TORSDOF 2
ENDMDL
MODEL 9
REMARK VINA RESULT:      -5.8     12.698     15.547
REMARK  2 active torsions:
REMARK  status: ('A' for Active; 'I' for Inactive)
REMARK    1  A    between atoms: C_2  and  N_3 
REMARK    2  A    between atoms: C_7  and  C_10 
REMARK       I    between atoms: C_19  and  N_22 
ROOT
HETATM    1  N   UNK N   1      29.044  23.342  -5.116  0.00  0.00    -0.299 N 
HETATM    2  C   UNK N   1      28.427  22.709  -6.186  0.00  0.00     0.138 A 
HETATM    3  C   UNK N   1      27.212  23.209  -6.696  0.00  0.00     0.033 A 
HETATM    4  C   UNK N   1      26.637  24.331  -6.130  0.00  0.00     0.036 A 
HETATM    5  C   UNK N   1      27.237  24.977  -5.063  0.00  0.00     0.061 A 
HETATM    6  C   UNK N   1      28.454  24.471  -4.555  0.00  0.00     0.261 A 
HETATM    7  O   UNK N   1      28.993  25.033  -3.612  0.00  0.00    -0.267 OA
HETATM    8  C   UNK N   1      26.602  22.558  -7.777  0.00  0.00     0.036 A 
HETATM    9  N   UNK N   1      27.188  21.461  -8.313  0.00  0.00    -0.195 N 
ATOM     10  HN  UNK N   1      26.744  20.987  -9.099  1.00  0.00     0.184 HD
HETATM   11  C   UNK N   1      28.357  20.982  -7.818  0.00  0.00     0.677 A 
HETATM   12  N   UNK N   1      28.964  21.601  -6.769  0.00  0.00    -0.176 N 
ATOM     13  HN  UNK N   1      29.842  21.228  -6.411  1.00  0.00     0.186 HD
HETATM   14  N   UNK N   1      28.944  19.839  -8.394  0.00  0.00    -0.234 N 
HETATM   15  C   UNK N   1      25.314  23.050  -8.354  0.00  0.00     0.070 C 
HETATM   16  H   UNK N   1      29.793  19.489  -8.038  0.00  0.00     0.174 HD
HETATM   17  H   UNK N   1      28.506  19.391  -9.153  0.00  0.00     0.174 HD
ENDROOT
BRANCH   5  18
HETATM   18  C   UNK N   1      26.550  26.170  -4.520  0.00  0.00     0.065 A 
HETATM   19  C   UNK N   1      25.929  27.179  -5.228  0.00  0.00     0.050 A 
HETATM   20  C   UNK N   1      25.454  28.039  -4.252  0.00  0.00     0.109 A 
HETATM   21  N   UNK N   1      25.785  27.550  -3.041  0.00  0.00    -0.311 N 
HETATM   22  N   UNK N   1      26.448  26.419  -3.203  0.00  0.00    -0.300 N 
ATOM     23  HN  UNK N   1      25.561  27.982  -2.145  1.00  0.00     0.186 HD
HETATM   24  H   UNK N   1      26.807  25.854  -2.481  0.00  0.00     0.187 HD
ENDBRANCH   5  18
BRANCH   1  25
HETATM   25  C   UNK N   1      30.321  22.902  -4.500  0.00  0.00     0.129 C 
HETATM   26  C   UNK N   1      30.275  21.792  -3.461  0.00  0.00     0.027 C 
ENDBRANCH   1  25
TORSDOF 2
ENDMDL
