REMARK  9 active torsions:
REMARK  status: ('A' for Active; 'I' for Inactive)
REMARK    1  A    between atoms: C_12  and  O_22 
REMARK    2  A    between atoms: C_14  and  C_20 
REMARK    3  A    between atoms: C_15  and  O_18 
REMARK    4  A    between atoms: O_22  and  C_23 
REMARK    5  A    between atoms: C_23  and  C_25 
REMARK    6  A    between atoms: C_25  and  S_26 
REMARK    7  A    between atoms: S_26  and  C_27 
REMARK    8  A    between atoms: C_30  and  N_34 
REMARK    9  A    between atoms: C_32  and  O_33 
ROOT
HETATM    1  C   UNK N   1      -0.273   2.484   0.067  0.00  0.00     0.011 C 
HETATM    2  C   UNK N   1       0.139   1.397   1.044  0.00  0.00    -0.007 C 
HETATM    3  C   UNK N   1      -1.064   0.409   1.258  0.00  0.00     0.006 C 
HETATM    4  C   UNK N   1      -0.683  -1.112   1.325  0.00  0.00     0.011 C 
HETATM    5  C   UNK N   1       0.281  -1.592   0.189  0.00  0.00    -0.023 C 
HETATM    6  C   UNK N   1      -0.518  -2.194  -0.983  0.00  0.00     0.018 C 
HETATM    7  C   UNK N   1      -0.901  -1.035  -1.906  0.00  0.00     0.079 C 
HETATM    8  C   UNK N   1       0.155  -0.053  -1.597  0.00  0.00     0.132 C 
HETATM    9  O   UNK N   1       0.429   0.881  -2.333  0.00  0.00    -0.298 OA
HETATM   10  C   UNK N   1       0.966  -0.424  -0.409  0.00  0.00     0.075 C 
HETATM   11  C   UNK N   1       1.401   0.612   0.632  0.00  0.00    -0.003 C 
HETATM   12  C   UNK N   1       2.639   1.195  -0.051  0.00  0.00     0.142 C 
HETATM   13  C   UNK N   1       3.652   0.097  -0.571  0.00  0.00     0.049 C 
HETATM   14  C   UNK N   1       3.891  -1.351   0.032  0.00  0.00     0.002 C 
HETATM   15  C   UNK N   1       2.778  -2.480  -0.146  0.00  0.00     0.134 C 
HETATM   16  C   UNK N   1       1.453  -2.485   0.707  0.00  0.00     0.021 C 
HETATM   17  C   UNK N   1       0.992  -3.904   0.999  0.00  0.00     0.013 C 
HETATM   18  C   UNK N   1       4.303  -1.274   1.491  0.00  0.00     0.022 C 
HETATM   19  C   UNK N   1       1.888   0.065   1.979  0.00  0.00     0.019 C 
ENDROOT
BRANCH  12  20
HETATM   20  O   UNK N   1       3.305   2.159   0.665  0.00  0.00    -0.315 OA
BRANCH  20  21
HETATM   21  C   UNK N   1       3.408   3.406   0.157  0.00  0.00     0.268 C 
HETATM   22  O   UNK N   1       2.411   4.097   0.014  0.00  0.00    -0.264 OA
BRANCH  21  23
HETATM   23  C   UNK N   1       4.723   3.894  -0.356  0.00  0.00     0.185 C 
BRANCH  23  24
HETATM   24  S   UNK N   1       5.992   3.871   0.940  0.00  0.00    -0.152 SA
BRANCH  24  25
HETATM   25  C   UNK N   1       6.662   2.267   0.393  0.00  0.00     0.076 C 
HETATM   26  C   UNK N   1       6.736   1.299   1.578  0.00  0.00     0.020 C 
HETATM   27  C   UNK N   1       7.584   0.050   1.295  0.00  0.00     0.026 C 
HETATM   28  C   UNK N   1       7.862  -0.139  -0.193  0.00  0.00     0.076 C 
HETATM   29  C   UNK N   1       8.592   1.075  -0.776  0.00  0.00     0.057 C 
HETATM   30  C   UNK N   1       8.013   2.425  -0.319  0.00  0.00     0.133 C 
BRANCH  28  31
HETATM   31  N   UNK N   1       8.657  -1.336  -0.399  0.00  0.00    -0.426 N 
HETATM   32  H   UNK N   1       8.208  -2.240  -0.543  0.00  0.00     0.150 HD
HETATM   33  H   UNK N   1       9.675  -1.272  -0.399  0.00  0.00     0.150 HD
ENDBRANCH  28  31
BRANCH  30  34
HETATM   34  O   UNK N   1       8.935   3.056   0.518  0.00  0.00    -0.394 OA
HETATM   35  H   UNK N   1       9.636   2.721   1.099  0.00  0.00     0.210 HD
ENDBRANCH  30  34
ENDBRANCH  24  25
ENDBRANCH  23  24
ENDBRANCH  21  23
ENDBRANCH  20  21
ENDBRANCH  12  20
BRANCH  14  36
HETATM   36  C   UNK N   1       5.141  -1.853  -0.644  0.00  0.00    -0.025 C 
HETATM   37  C   UNK N   1       5.245  -2.012  -1.966  0.00  0.00     0.008 C 
ENDBRANCH  14  36
BRANCH  15  38
HETATM   38  O   UNK N   1       2.501  -2.741  -1.493  0.00  0.00    -0.394 OA
HETATM   39  H   UNK N   1       2.247  -2.665  -2.426  0.00  0.00     0.210 HD
ENDBRANCH  15  38
TORSDOF 9
