MODEL 1
REMARK VINA RESULT:      -7.9      0.000      0.000
REMARK  4 active torsions:
REMARK  status: ('A' for Active; 'I' for Inactive)
REMARK    1  A    between atoms: C_18  and  C_4 
REMARK    2  A    between atoms: C_6  and  N_7 
REMARK       I    between atoms: N_7  and  C_8 
REMARK    3  A    between atoms: C_8  and  C_10 
REMARK    4  A    between atoms: C_25  and  N_28 
ROOT
HETATM    1  C   UNK N   1      32.141  16.778   3.283  0.00  0.00     0.032 A 
HETATM    2  C   UNK N   1      33.181  15.870   3.542  0.00  0.00     0.045 A 
HETATM    3  C   UNK N   1      33.594  15.611   4.865  0.00  0.00     0.125 A 
HETATM    4  C   UNK N   1      32.974  16.299   5.938  0.00  0.00     0.013 A 
HETATM    5  C   UNK N   1      31.987  17.222   5.629  0.00  0.00     0.042 A 
HETATM    6  C   UNK N   1      31.562  17.475   4.351  0.00  0.00     0.035 A 
HETATM    7  F   UNK N   1      34.530  14.657   5.079  0.00  0.00    -0.205 F 
ENDROOT
BRANCH   4   8
HETATM    8  C   UNK N   1      33.215  16.056   7.431  0.00  0.00     0.090 C 
HETATM    9  C   UNK N   1      32.484  17.084   8.261  0.00  0.00     0.204 C 
HETATM   10  O   UNK N   1      33.311  18.212   8.324  0.00  0.00    -0.388 OA
HETATM   11  C   UNK N   1      34.620  17.701   8.432  0.00  0.00     0.176 C 
HETATM   12  C   UNK N   1      34.667  16.295   7.846  0.00  0.00     0.054 C 
HETATM   13  C   UNK N   1      35.197  15.331   8.922  0.00  0.00     0.092 C 
HETATM   14  S   UNK N   1      33.928  14.887  10.155  0.00  0.00    -0.094 SA
HETATM   15  C   UNK N   1      32.977  14.093   8.864  0.00  0.00     0.134 C 
HETATM   16  N   UNK N   1      32.767  14.696   7.747  0.00  0.00    -0.355 N 
ATOM     17  HN  UNK N   1      32.251  14.190   7.028  1.00  0.00     0.162 HD
BRANCH  15  18
HETATM   18  N   UNK N   1      32.548  12.757   9.022  0.00  0.00    -0.380 N 
HETATM   19  H   UNK N   1      32.714  12.097   8.311  0.00  0.00     0.158 HD
HETATM   20  H   UNK N   1      32.081  12.485   9.845  0.00  0.00     0.158 HD
ENDBRANCH  15  18
ENDBRANCH   4   8
BRANCH   6  21
HETATM   21  N   UNK N   1      30.360  18.202   4.280  0.00  0.00    -0.322 N 
HETATM   22  C   UNK N   1      29.133  17.766   4.644  0.00  0.00     0.272 C 
HETATM   23  O   UNK N   1      28.904  16.582   4.818  0.00  0.00    -0.266 OA
HETATM   24  H   UNK N   1      30.418  19.120   3.931  0.00  0.00     0.169 HD
BRANCH  22  25
HETATM   25  C   UNK N   1      28.178  18.793   5.094  0.00  0.00     0.101 A 
HETATM   26  C   UNK N   1      27.508  19.576   4.139  0.00  0.00     0.038 A 
HETATM   27  C   UNK N   1      26.745  20.664   4.546  0.00  0.00     0.046 A 
HETATM   28  C   UNK N   1      26.663  20.972   5.902  0.00  0.00     0.131 A 
HETATM   29  C   UNK N   1      27.334  20.171   6.832  0.00  0.00     0.130 A 
HETATM   30  F   UNK N   1      25.944  22.043   6.311  0.00  0.00    -0.205 F 
HETATM   31  N   UNK N   1      28.079  19.112   6.415  0.00  0.00    -0.359 N 
ATOM     32  HN  UNK N   1      28.573  18.545   7.105  1.00  0.00     0.165 HD
ENDBRANCH  22  25
ENDBRANCH   6  21
TORSDOF 4
ENDMDL
MODEL 2
REMARK VINA RESULT:      -7.8      2.947      4.349
REMARK  4 active torsions:
REMARK  status: ('A' for Active; 'I' for Inactive)
REMARK    1  A    between atoms: C_18  and  C_4 
REMARK    2  A    between atoms: C_6  and  N_7 
REMARK       I    between atoms: N_7  and  C_8 
REMARK    3  A    between atoms: C_8  and  C_10 
REMARK    4  A    between atoms: C_25  and  N_28 
ROOT
HETATM    1  C   UNK N   1      29.139  18.684   8.635  0.00  0.00     0.032 A 
HETATM    2  C   UNK N   1      30.449  18.398   9.055  0.00  0.00     0.045 A 
HETATM    3  C   UNK N   1      31.288  17.578   8.273  0.00  0.00     0.125 A 
HETATM    4  C   UNK N   1      30.791  17.013   7.071  0.00  0.00     0.013 A 
HETATM    5  C   UNK N   1      29.476  17.284   6.726  0.00  0.00     0.042 A 
HETATM    6  C   UNK N   1      28.652  18.092   7.464  0.00  0.00     0.035 A 
HETATM    7  F   UNK N   1      32.573  17.407   8.660  0.00  0.00    -0.205 F 
ENDROOT
BRANCH   4   8
HETATM    8  C   UNK N   1      31.595  16.202   6.051  0.00  0.00     0.090 C 
HETATM    9  C   UNK N   1      31.141  14.762   6.041  0.00  0.00     0.204 C 
HETATM   10  O   UNK N   1      31.828  14.117   7.077  0.00  0.00    -0.388 OA
HETATM   11  C   UNK N   1      33.122  14.676   7.062  0.00  0.00     0.176 C 
HETATM   12  C   UNK N   1      33.069  16.062   6.430  0.00  0.00     0.054 C 
HETATM   13  C   UNK N   1      34.047  16.098   5.242  0.00  0.00     0.092 C 
HETATM   14  S   UNK N   1      33.378  15.280   3.755  0.00  0.00    -0.094 SA
HETATM   15  C   UNK N   1      32.086  16.516   3.679  0.00  0.00     0.134 C 
HETATM   16  N   UNK N   1      31.420  16.826   4.735  0.00  0.00    -0.355 N 
ATOM     17  HN  UNK N   1      30.719  17.561   4.651  1.00  0.00     0.162 HD
BRANCH  15  18
HETATM   18  N   UNK N   1      31.867  17.238   2.485  0.00  0.00    -0.380 N 
HETATM   19  H   UNK N   1      32.624  17.653   2.012  0.00  0.00     0.158 HD
HETATM   20  H   UNK N   1      30.955  17.326   2.125  0.00  0.00     0.158 HD
ENDBRANCH  15  18
ENDBRANCH   4   8
BRANCH   6  21
HETATM   21  N   UNK N   1      27.480  18.483   6.791  0.00  0.00    -0.322 N 
HETATM   22  C   UNK N   1      27.230  19.695   6.248  0.00  0.00     0.272 C 
HETATM   23  O   UNK N   1      27.902  20.671   6.535  0.00  0.00    -0.266 OA
HETATM   24  H   UNK N   1      26.772  17.805   6.706  0.00  0.00     0.169 HD
BRANCH  22  25
HETATM   25  C   UNK N   1      26.309  19.724   5.099  0.00  0.00     0.101 A 
HETATM   26  C   UNK N   1      26.670  20.440   3.946  0.00  0.00     0.038 A 
HETATM   27  C   UNK N   1      25.742  20.628   2.928  0.00  0.00     0.046 A 
HETATM   28  C   UNK N   1      24.457  20.110   3.070  0.00  0.00     0.131 A 
HETATM   29  C   UNK N   1      24.127  19.394   4.226  0.00  0.00     0.130 A 
HETATM   30  F   UNK N   1      23.536  20.306   2.099  0.00  0.00    -0.205 F 
HETATM   31  N   UNK N   1      25.047  19.223   5.214  0.00  0.00    -0.359 N 
ATOM     32  HN  UNK N   1      24.787  18.710   6.056  1.00  0.00     0.165 HD
ENDBRANCH  22  25
ENDBRANCH   6  21
TORSDOF 4
ENDMDL
MODEL 3
REMARK VINA RESULT:      -7.6      2.970      4.274
REMARK  4 active torsions:
REMARK  status: ('A' for Active; 'I' for Inactive)
REMARK    1  A    between atoms: C_18  and  C_4 
REMARK    2  A    between atoms: C_6  and  N_7 
REMARK       I    between atoms: N_7  and  C_8 
REMARK    3  A    between atoms: C_8  and  C_10 
REMARK    4  A    between atoms: C_25  and  N_28 
ROOT
HETATM    1  C   UNK N   1      29.147  18.680   8.704  0.00  0.00     0.032 A 
HETATM    2  C   UNK N   1      30.479  18.374   9.027  0.00  0.00     0.045 A 
HETATM    3  C   UNK N   1      31.269  17.601   8.152  0.00  0.00     0.125 A 
HETATM    4  C   UNK N   1      30.701  17.103   6.952  0.00  0.00     0.013 A 
HETATM    5  C   UNK N   1      29.368  17.390   6.702  0.00  0.00     0.042 A 
HETATM    6  C   UNK N   1      28.590  18.152   7.532  0.00  0.00     0.035 A 
HETATM    7  F   UNK N   1      32.576  17.413   8.451  0.00  0.00    -0.205 F 
ENDROOT
BRANCH   4   8
HETATM    8  C   UNK N   1      31.442  16.353   5.842  0.00  0.00     0.090 C 
HETATM    9  C   UNK N   1      32.923  16.644   5.902  0.00  0.00     0.204 C 
HETATM   10  O   UNK N   1      33.126  17.843   5.210  0.00  0.00    -0.388 OA
HETATM   11  C   UNK N   1      32.241  17.788   4.114  0.00  0.00     0.176 C 
HETATM   12  C   UNK N   1      31.083  16.853   4.443  0.00  0.00     0.054 C 
HETATM   13  C   UNK N   1      31.015  15.757   3.364  0.00  0.00     0.092 C 
HETATM   14  S   UNK N   1      32.270  14.456   3.603  0.00  0.00    -0.094 SA
HETATM   15  C   UNK N   1      31.489  14.011   5.150  0.00  0.00     0.134 C 
HETATM   16  N   UNK N   1      31.172  14.921   6.003  0.00  0.00    -0.355 N 
ATOM     17  HN  UNK N   1      30.695  14.623   6.854  1.00  0.00     0.162 HD
BRANCH  15  18
HETATM   18  N   UNK N   1      31.115  12.672   5.394  0.00  0.00    -0.380 N 
HETATM   19  H   UNK N   1      31.802  11.994   5.590  0.00  0.00     0.158 HD
HETATM   20  H   UNK N   1      30.165  12.414   5.369  0.00  0.00     0.158 HD
ENDBRANCH  15  18
ENDBRANCH   4   8
BRANCH   6  21
HETATM   21  N   UNK N   1      27.380  18.577   6.954  0.00  0.00    -0.322 N 
HETATM   22  C   UNK N   1      27.219  19.593   6.077  0.00  0.00     0.272 C 
HETATM   23  O   UNK N   1      28.089  20.430   5.908  0.00  0.00    -0.266 OA
HETATM   24  H   UNK N   1      26.569  18.084   7.214  0.00  0.00     0.169 HD
BRANCH  22  25
HETATM   25  C   UNK N   1      26.088  19.481   5.141  0.00  0.00     0.101 A 
HETATM   26  C   UNK N   1      26.028  20.335   4.028  0.00  0.00     0.038 A 
HETATM   27  C   UNK N   1      24.884  20.367   3.240  0.00  0.00     0.046 A 
HETATM   28  C   UNK N   1      23.802  19.555   3.572  0.00  0.00     0.131 A 
HETATM   29  C   UNK N   1      23.891  18.709   4.681  0.00  0.00     0.130 A 
HETATM   30  F   UNK N   1      22.672  19.595   2.828  0.00  0.00    -0.205 F 
HETATM   31  N   UNK N   1      25.018  18.693   5.444  0.00  0.00    -0.359 N 
ATOM     32  HN  UNK N   1      25.062  18.079   6.258  1.00  0.00     0.165 HD
ENDBRANCH  22  25
ENDBRANCH   6  21
TORSDOF 4
ENDMDL
MODEL 4
REMARK VINA RESULT:      -7.5      4.670      8.932
REMARK  4 active torsions:
REMARK  status: ('A' for Active; 'I' for Inactive)
REMARK    1  A    between atoms: C_18  and  C_4 
REMARK    2  A    between atoms: C_6  and  N_7 
REMARK       I    between atoms: N_7  and  C_8 
REMARK    3  A    between atoms: C_8  and  C_10 
REMARK    4  A    between atoms: C_25  and  N_28 
ROOT
HETATM    1  C   UNK N   1      36.793  13.796   9.467  0.00  0.00     0.032 A 
HETATM    2  C   UNK N   1      36.868  13.873   8.067  0.00  0.00     0.045 A 
HETATM    3  C   UNK N   1      35.848  14.507   7.329  0.00  0.00     0.125 A 
HETATM    4  C   UNK N   1      34.723  15.043   8.007  0.00  0.00     0.013 A 
HETATM    5  C   UNK N   1      34.672  14.898   9.385  0.00  0.00     0.042 A 
HETATM    6  C   UNK N   1      35.661  14.299  10.119  0.00  0.00     0.035 A 
HETATM    7  F   UNK N   1      36.004  14.648   5.992  0.00  0.00    -0.205 F 
ENDROOT
BRANCH   4   8
HETATM    8  C   UNK N   1      33.591  15.860   7.379  0.00  0.00     0.090 C 
HETATM    9  C   UNK N   1      34.139  16.830   6.360  0.00  0.00     0.204 C 
HETATM   10  O   UNK N   1      34.551  17.966   7.067  0.00  0.00    -0.388 OA
HETATM   11  C   UNK N   1      33.584  18.139   8.078  0.00  0.00     0.176 C 
HETATM   12  C   UNK N   1      32.915  16.803   8.374  0.00  0.00     0.054 C 
HETATM   13  C   UNK N   1      31.395  16.960   8.183  0.00  0.00     0.092 C 
HETATM   14  S   UNK N   1      30.902  16.936   6.427  0.00  0.00    -0.094 SA
HETATM   15  C   UNK N   1      31.485  15.248   6.305  0.00  0.00     0.134 C 
HETATM   16  N   UNK N   1      32.640  14.925   6.770  0.00  0.00    -0.355 N 
ATOM     17  HN  UNK N   1      32.914  13.945   6.710  1.00  0.00     0.162 HD
BRANCH  15  18
HETATM   18  N   UNK N   1      30.634  14.241   5.799  0.00  0.00    -0.380 N 
HETATM   19  H   UNK N   1      30.739  13.309   6.099  0.00  0.00     0.158 HD
HETATM   20  H   UNK N   1      29.935  14.470   5.146  0.00  0.00     0.158 HD
ENDBRANCH  15  18
ENDBRANCH   4   8
BRANCH   6  21
HETATM   21  N   UNK N   1      35.565  14.528  11.504  0.00  0.00    -0.322 N 
HETATM   22  C   UNK N   1      35.354  13.598  12.462  0.00  0.00     0.272 C 
HETATM   23  O   UNK N   1      34.947  12.483  12.187  0.00  0.00    -0.266 OA
HETATM   24  H   UNK N   1      35.661  15.460  11.806  0.00  0.00     0.169 HD
BRANCH  22  25
HETATM   25  C   UNK N   1      35.903  13.893  13.797  0.00  0.00     0.101 A 
HETATM   26  C   UNK N   1      35.408  13.199  14.913  0.00  0.00     0.038 A 
HETATM   27  C   UNK N   1      35.782  13.589  16.194  0.00  0.00     0.046 A 
HETATM   28  C   UNK N   1      36.638  14.676  16.354  0.00  0.00     0.131 A 
HETATM   29  C   UNK N   1      37.121  15.346  15.226  0.00  0.00     0.130 A 
HETATM   30  F   UNK N   1      36.990  15.083  17.596  0.00  0.00    -0.205 F 
HETATM   31  N   UNK N   1      36.742  14.951  13.979  0.00  0.00    -0.359 N 
ATOM     32  HN  UNK N   1      37.093  15.458  13.166  1.00  0.00     0.165 HD
ENDBRANCH  22  25
ENDBRANCH   6  21
TORSDOF 4
ENDMDL
MODEL 5
REMARK VINA RESULT:      -7.5      3.386      7.926
REMARK  4 active torsions:
REMARK  status: ('A' for Active; 'I' for Inactive)
REMARK    1  A    between atoms: C_18  and  C_4 
REMARK    2  A    between atoms: C_6  and  N_7 
REMARK       I    between atoms: N_7  and  C_8 
REMARK    3  A    between atoms: C_8  and  C_10 
REMARK    4  A    between atoms: C_25  and  N_28 
ROOT
HETATM    1  C   UNK N   1      34.152  16.747   6.968  0.00  0.00     0.032 A 
HETATM    2  C   UNK N   1      33.803  17.321   5.734  0.00  0.00     0.045 A 
HETATM    3  C   UNK N   1      32.450  17.434   5.354  0.00  0.00     0.125 A 
HETATM    4  C   UNK N   1      31.438  16.936   6.214  0.00  0.00     0.013 A 
HETATM    5  C   UNK N   1      31.835  16.334   7.397  0.00  0.00     0.042 A 
HETATM    6  C   UNK N   1      33.143  16.229   7.789  0.00  0.00     0.035 A 
HETATM    7  F   UNK N   1      32.150  18.082   4.204  0.00  0.00    -0.205 F 
ENDROOT
BRANCH   4   8
HETATM    8  C   UNK N   1      29.927  17.082   6.014  0.00  0.00     0.090 C 
HETATM    9  C   UNK N   1      29.288  15.731   5.793  0.00  0.00     0.204 C 
HETATM   10  O   UNK N   1      29.427  15.439   4.431  0.00  0.00    -0.388 OA
HETATM   11  C   UNK N   1      29.235  16.669   3.770  0.00  0.00     0.176 C 
HETATM   12  C   UNK N   1      29.564  17.813   4.721  0.00  0.00     0.054 C 
HETATM   13  C   UNK N   1      28.336  18.736   4.825  0.00  0.00     0.092 C 
HETATM   14  S   UNK N   1      27.041  18.062   5.918  0.00  0.00    -0.094 SA
HETATM   15  C   UNK N   1      28.169  18.186   7.302  0.00  0.00     0.134 C 
HETATM   16  N   UNK N   1      29.374  17.747   7.199  0.00  0.00    -0.355 N 
ATOM     17  HN  UNK N   1      29.991  17.872   8.000  1.00  0.00     0.162 HD
BRANCH  15  18
HETATM   18  N   UNK N   1      27.777  18.866   8.475  0.00  0.00    -0.380 N 
HETATM   19  H   UNK N   1      28.379  19.528   8.887  0.00  0.00     0.158 HD
HETATM   20  H   UNK N   1      26.901  18.679   8.882  0.00  0.00     0.158 HD
ENDBRANCH  15  18
ENDBRANCH   4   8
BRANCH   6  21
HETATM   21  N   UNK N   1      33.310  15.873   9.140  0.00  0.00    -0.322 N 
HETATM   22  C   UNK N   1      33.537  14.631   9.624  0.00  0.00     0.272 C 
HETATM   23  O   UNK N   1      33.344  13.639   8.944  0.00  0.00    -0.266 OA
HETATM   24  H   UNK N   1      33.256  16.601   9.800  0.00  0.00     0.169 HD
BRANCH  22  25
HETATM   25  C   UNK N   1      34.288  14.545  10.888  0.00  0.00     0.101 A 
HETATM   26  C   UNK N   1      35.091  15.626  11.287  0.00  0.00     0.038 A 
HETATM   27  C   UNK N   1      35.942  15.491  12.377  0.00  0.00     0.046 A 
HETATM   28  C   UNK N   1      35.996  14.277  13.057  0.00  0.00     0.131 A 
HETATM   29  C   UNK N   1      35.180  13.219  12.644  0.00  0.00     0.130 A 
HETATM   30  F   UNK N   1      36.839  14.124  14.105  0.00  0.00    -0.205 F 
HETATM   31  N   UNK N   1      34.354  13.368  11.572  0.00  0.00    -0.359 N 
ATOM     32  HN  UNK N   1      33.775  12.583  11.274  1.00  0.00     0.165 HD
ENDBRANCH  22  25
ENDBRANCH   6  21
TORSDOF 4
ENDMDL
MODEL 6
REMARK VINA RESULT:      -7.4      5.522      9.781
REMARK  4 active torsions:
REMARK  status: ('A' for Active; 'I' for Inactive)
REMARK    1  A    between atoms: C_18  and  C_4 
REMARK    2  A    between atoms: C_6  and  N_7 
REMARK       I    between atoms: N_7  and  C_8 
REMARK    3  A    between atoms: C_8  and  C_10 
REMARK    4  A    between atoms: C_25  and  N_28 
ROOT
HETATM    1  C   UNK N   1      25.242  20.409   3.500  0.00  0.00     0.032 A 
HETATM    2  C   UNK N   1      23.925  20.534   3.026  0.00  0.00     0.045 A 
HETATM    3  C   UNK N   1      22.952  19.568   3.350  0.00  0.00     0.125 A 
HETATM    4  C   UNK N   1      23.316  18.444   4.136  0.00  0.00     0.013 A 
HETATM    5  C   UNK N   1      24.638  18.340   4.538  0.00  0.00     0.042 A 
HETATM    6  C   UNK N   1      25.593  19.277   4.246  0.00  0.00     0.035 A 
HETATM    7  F   UNK N   1      21.674  19.775   2.957  0.00  0.00    -0.205 F 
ENDROOT
BRANCH   4   8
HETATM    8  C   UNK N   1      22.367  17.370   4.675  0.00  0.00     0.090 C 
HETATM    9  C   UNK N   1      23.094  16.057   4.844  0.00  0.00     0.204 C 
HETATM   10  O   UNK N   1      23.079  15.426   3.595  0.00  0.00    -0.388 OA
HETATM   11  C   UNK N   1      21.810  15.714   3.054  0.00  0.00     0.176 C 
HETATM   12  C   UNK N   1      21.269  16.993   3.682  0.00  0.00     0.054 C 
HETATM   13  C   UNK N   1      19.901  16.687   4.318  0.00  0.00     0.092 C 
HETATM   14  S   UNK N   1      20.047  15.836   5.925  0.00  0.00    -0.094 SA
HETATM   15  C   UNK N   1      20.861  17.282   6.596  0.00  0.00     0.134 C 
HETATM   16  N   UNK N   1      21.820  17.846   5.950  0.00  0.00    -0.355 N 
ATOM     17  HN  UNK N   1      22.228  18.688   6.354  1.00  0.00     0.162 HD
BRANCH  15  18
HETATM   18  N   UNK N   1      20.381  17.876   7.783  0.00  0.00    -0.380 N 
HETATM   19  H   UNK N   1      19.733  18.615   7.739  0.00  0.00     0.158 HD
HETATM   20  H   UNK N   1      20.696  17.551   8.658  0.00  0.00     0.158 HD
ENDBRANCH  15  18
ENDBRANCH   4   8
BRANCH   6  21
HETATM   21  N   UNK N   1      26.776  19.144   4.997  0.00  0.00    -0.322 N 
HETATM   22  C   UNK N   1      27.051  19.740   6.178  0.00  0.00     0.272 C 
HETATM   23  O   UNK N   1      26.395  20.686   6.581  0.00  0.00    -0.266 OA
HETATM   24  H   UNK N   1      27.472  18.556   4.625  0.00  0.00     0.169 HD
BRANCH  22  25
HETATM   25  C   UNK N   1      27.977  19.028   7.075  0.00  0.00     0.101 A 
HETATM   26  C   UNK N   1      28.930  18.153   6.527  0.00  0.00     0.038 A 
HETATM   27  C   UNK N   1      29.686  17.341   7.363  0.00  0.00     0.046 A 
HETATM   28  C   UNK N   1      29.481  17.396   8.740  0.00  0.00     0.131 A 
HETATM   29  C   UNK N   1      28.531  18.281   9.259  0.00  0.00     0.130 A 
HETATM   30  F   UNK N   1      30.192  16.593   9.563  0.00  0.00    -0.205 F 
HETATM   31  N   UNK N   1      27.797  19.068   8.425  0.00  0.00    -0.359 N 
ATOM     32  HN  UNK N   1      27.098  19.699   8.819  1.00  0.00     0.165 HD
ENDBRANCH  22  25
ENDBRANCH   6  21
TORSDOF 4
ENDMDL
MODEL 7
REMARK VINA RESULT:      -7.3      5.536     10.015
REMARK  4 active torsions:
REMARK  status: ('A' for Active; 'I' for Inactive)
REMARK    1  A    between atoms: C_18  and  C_4 
REMARK    2  A    between atoms: C_6  and  N_7 
REMARK       I    between atoms: N_7  and  C_8 
REMARK    3  A    between atoms: C_8  and  C_10 
REMARK    4  A    between atoms: C_25  and  N_28 
ROOT
HETATM    1  C   UNK N   1      25.857  20.010   3.354  0.00  0.00     0.032 A 
HETATM    2  C   UNK N   1      24.693  20.682   2.946  0.00  0.00     0.045 A 
HETATM    3  C   UNK N   1      23.425  20.094   3.130  0.00  0.00     0.125 A 
HETATM    4  C   UNK N   1      23.330  18.801   3.704  0.00  0.00     0.013 A 
HETATM    5  C   UNK N   1      24.509  18.158   4.045  0.00  0.00     0.042 A 
HETATM    6  C   UNK N   1      25.749  18.720   3.888  0.00  0.00     0.035 A 
HETATM    7  F   UNK N   1      22.323  20.814   2.815  0.00  0.00    -0.205 F 
ENDROOT
BRANCH   4   8
HETATM    8  C   UNK N   1      22.038  18.070   4.081  0.00  0.00     0.090 C 
HETATM    9  C   UNK N   1      21.372  18.742   5.257  0.00  0.00     0.204 C 
HETATM   10  O   UNK N   1      21.982  18.232   6.410  0.00  0.00    -0.388 OA
HETATM   11  C   UNK N   1      22.207  16.869   6.133  0.00  0.00     0.176 C 
HETATM   12  C   UNK N   1      22.287  16.663   4.625  0.00  0.00     0.054 C 
HETATM   13  C   UNK N   1      21.235  15.618   4.214  0.00  0.00     0.092 C 
HETATM   14  S   UNK N   1      19.549  16.310   4.136  0.00  0.00    -0.094 SA
HETATM   15  C   UNK N   1      20.072  17.385   2.804  0.00  0.00     0.134 C 
HETATM   16  N   UNK N   1      21.162  18.060   2.904  0.00  0.00    -0.355 N 
ATOM     17  HN  UNK N   1      21.438  18.631   2.106  1.00  0.00     0.162 HD
BRANCH  15  18
HETATM   18  N   UNK N   1      19.350  17.411   1.591  0.00  0.00    -0.380 N 
HETATM   19  H   UNK N   1      19.787  17.147   0.750  0.00  0.00     0.158 HD
HETATM   20  H   UNK N   1      18.407  17.694   1.587  0.00  0.00     0.158 HD
ENDBRANCH  15  18
ENDBRANCH   4   8
BRANCH   6  21
HETATM   21  N   UNK N   1      26.776  18.043   4.572  0.00  0.00    -0.322 N 
HETATM   22  C   UNK N   1      27.612  17.115   4.055  0.00  0.00     0.272 C 
HETATM   23  O   UNK N   1      27.374  16.566   2.993  0.00  0.00    -0.266 OA
HETATM   24  H   UNK N   1      26.897  18.268   5.522  0.00  0.00     0.169 HD
BRANCH  22  25
HETATM   25  C   UNK N   1      28.942  17.009   4.678  0.00  0.00     0.101 A 
HETATM   26  C   UNK N   1      29.039  16.732   6.051  0.00  0.00     0.038 A 
HETATM   27  C   UNK N   1      30.272  16.807   6.688  0.00  0.00     0.046 A 
HETATM   28  C   UNK N   1      31.400  17.169   5.955  0.00  0.00     0.131 A 
HETATM   29  C   UNK N   1      31.276  17.434   4.587  0.00  0.00     0.130 A 
HETATM   30  F   UNK N   1      32.602  17.272   6.567  0.00  0.00    -0.205 F 
HETATM   31  N   UNK N   1      30.060  17.358   3.980  0.00  0.00    -0.359 N 
ATOM     32  HN  UNK N   1      29.984  17.566   2.985  1.00  0.00     0.165 HD
ENDBRANCH  22  25
ENDBRANCH   6  21
TORSDOF 4
ENDMDL
MODEL 8
REMARK VINA RESULT:      -7.2      4.773      9.344
REMARK  4 active torsions:
REMARK  status: ('A' for Active; 'I' for Inactive)
REMARK    1  A    between atoms: C_18  and  C_4 
REMARK    2  A    between atoms: C_6  and  N_7 
REMARK       I    between atoms: N_7  and  C_8 
REMARK    3  A    between atoms: C_8  and  C_10 
REMARK    4  A    between atoms: C_25  and  N_28 
ROOT
HETATM    1  C   UNK N   1      35.388  15.995  11.195  0.00  0.00     0.032 A 
HETATM    2  C   UNK N   1      35.321  17.152  10.401  0.00  0.00     0.045 A 
HETATM    3  C   UNK N   1      34.492  17.192   9.262  0.00  0.00     0.125 A 
HETATM    4  C   UNK N   1      33.745  16.042   8.899  0.00  0.00     0.013 A 
HETATM    5  C   UNK N   1      33.884  14.909   9.686  0.00  0.00     0.042 A 
HETATM    6  C   UNK N   1      34.672  14.857  10.805  0.00  0.00     0.035 A 
HETATM    7  F   UNK N   1      34.378  18.356   8.581  0.00  0.00    -0.205 F 
ENDROOT
BRANCH   4   8
HETATM    8  C   UNK N   1      32.715  15.949   7.771  0.00  0.00     0.090 C 
HETATM    9  C   UNK N   1      32.431  14.506   7.428  0.00  0.00     0.204 C 
HETATM   10  O   UNK N   1      33.429  14.102   6.533  0.00  0.00    -0.388 OA
HETATM   11  C   UNK N   1      33.652  15.220   5.704  0.00  0.00     0.176 C 
HETATM   12  C   UNK N   1      33.238  16.488   6.440  0.00  0.00     0.054 C 
HETATM   13  C   UNK N   1      32.192  17.232   5.590  0.00  0.00     0.092 C 
HETATM   14  S   UNK N   1      30.530  16.492   5.714  0.00  0.00    -0.094 SA
HETATM   15  C   UNK N   1      30.493  16.913   7.454  0.00  0.00     0.134 C 
HETATM   16  N   UNK N   1      31.499  16.643   8.209  0.00  0.00    -0.355 N 
ATOM     17  HN  UNK N   1      31.447  16.934   9.184  1.00  0.00     0.162 HD
BRANCH  15  18
HETATM   18  N   UNK N   1      29.406  17.644   7.981  0.00  0.00    -0.380 N 
HETATM   19  H   UNK N   1      28.516  17.229   8.045  0.00  0.00     0.158 HD
HETATM   20  H   UNK N   1      29.539  18.570   8.287  0.00  0.00     0.158 HD
ENDBRANCH  15  18
ENDBRANCH   4   8
BRANCH   6  21
HETATM   21  N   UNK N   1      34.435  13.736  11.622  0.00  0.00    -0.322 N 
HETATM   22  C   UNK N   1      35.368  12.918  12.158  0.00  0.00     0.272 C 
HETATM   23  O   UNK N   1      36.517  12.913  11.753  0.00  0.00    -0.266 OA
HETATM   24  H   UNK N   1      33.495  13.527  11.823  0.00  0.00     0.169 HD
BRANCH  22  25
HETATM   25  C   UNK N   1      35.011  12.252  13.422  0.00  0.00     0.101 A 
HETATM   26  C   UNK N   1      35.864  12.376  14.530  0.00  0.00     0.038 A 
HETATM   27  C   UNK N   1      35.637  11.612  15.669  0.00  0.00     0.046 A 
HETATM   28  C   UNK N   1      34.567  10.720  15.692  0.00  0.00     0.131 A 
HETATM   29  C   UNK N   1      33.728  10.622  14.577  0.00  0.00     0.130 A 
HETATM   30  F   UNK N   1      34.349   9.952  16.783  0.00  0.00    -0.205 F 
HETATM   31  N   UNK N   1      33.967  11.377  13.469  0.00  0.00    -0.359 N 
ATOM     32  HN  UNK N   1      33.354  11.284  12.659  1.00  0.00     0.165 HD
ENDBRANCH  22  25
ENDBRANCH   6  21
TORSDOF 4
ENDMDL
MODEL 9
REMARK VINA RESULT:      -7.1      4.653      6.807
REMARK  4 active torsions:
REMARK  status: ('A' for Active; 'I' for Inactive)
REMARK    1  A    between atoms: C_18  and  C_4 
REMARK    2  A    between atoms: C_6  and  N_7 
REMARK       I    between atoms: N_7  and  C_8 
REMARK    3  A    between atoms: C_8  and  C_10 
REMARK    4  A    between atoms: C_25  and  N_28 
ROOT
HETATM    1  C   UNK N   1      35.981  14.702   8.847  0.00  0.00     0.032 A 
HETATM    2  C   UNK N   1      37.119  13.933   9.140  0.00  0.00     0.045 A 
HETATM    3  C   UNK N   1      37.319  13.414  10.436  0.00  0.00     0.125 A 
HETATM    4  C   UNK N   1      36.377  13.700  11.457  0.00  0.00     0.013 A 
HETATM    5  C   UNK N   1      35.297  14.505  11.131  0.00  0.00     0.042 A 
HETATM    6  C   UNK N   1      35.078  15.005   9.875  0.00  0.00     0.035 A 
HETATM    7  F   UNK N   1      38.375  12.596  10.653  0.00  0.00    -0.205 F 
ENDROOT
BRANCH   4   8
HETATM    8  C   UNK N   1      36.377  13.126  12.876  0.00  0.00     0.090 C 
HETATM    9  C   UNK N   1      37.182  11.850  12.932  0.00  0.00     0.204 C 
HETATM   10  O   UNK N   1      36.327  10.818  12.529  0.00  0.00    -0.388 OA
HETATM   11  C   UNK N   1      35.073  11.142  13.084  0.00  0.00     0.176 C 
HETATM   12  C   UNK N   1      34.998  12.645  13.325  0.00  0.00     0.054 C 
HETATM   13  C   UNK N   1      34.681  12.890  14.811  0.00  0.00     0.092 C 
HETATM   14  S   UNK N   1      36.141  12.686  15.884  0.00  0.00    -0.094 SA
HETATM   15  C   UNK N   1      36.917  14.073  15.062  0.00  0.00     0.134 C 
HETATM   16  N   UNK N   1      36.927  14.145  13.778  0.00  0.00    -0.355 N 
ATOM     17  HN  UNK N   1      37.348  14.971  13.355  1.00  0.00     0.162 HD
BRANCH  15  18
HETATM   18  N   UNK N   1      37.422  15.152  15.820  0.00  0.00    -0.380 N 
HETATM   19  H   UNK N   1      38.360  15.151  16.118  0.00  0.00     0.158 HD
HETATM   20  H   UNK N   1      36.835  15.908  16.051  0.00  0.00     0.158 HD
ENDBRANCH  15  18
ENDBRANCH   4   8
BRANCH   6  21
HETATM   21  N   UNK N   1      33.787  15.528   9.682  0.00  0.00    -0.322 N 
HETATM   22  C   UNK N   1      33.477  16.750   9.196  0.00  0.00     0.272 C 
HETATM   23  O   UNK N   1      34.309  17.638   9.131  0.00  0.00    -0.266 OA
HETATM   24  H   UNK N   1      33.033  14.945   9.926  0.00  0.00     0.169 HD
BRANCH  22  25
HETATM   25  C   UNK N   1      32.188  16.871   8.494  0.00  0.00     0.101 A 
HETATM   26  C   UNK N   1      32.155  16.774   7.093  0.00  0.00     0.038 A 
HETATM   27  C   UNK N   1      30.983  17.065   6.406  0.00  0.00     0.046 A 
HETATM   28  C   UNK N   1      29.853  17.461   7.117  0.00  0.00     0.131 A 
HETATM   29  C   UNK N   1      29.911  17.543   8.512  0.00  0.00     0.130 A 
HETATM   30  F   UNK N   1      28.712  17.772   6.459  0.00  0.00    -0.205 F 
HETATM   31  N   UNK N   1      31.069  17.258   9.169  0.00  0.00    -0.359 N 
ATOM     32  HN  UNK N   1      31.099  17.335  10.186  1.00  0.00     0.165 HD
ENDBRANCH  22  25
ENDBRANCH   6  21
TORSDOF 4
ENDMDL
