MODEL 1
REMARK VINA RESULT:      -6.7      0.000      0.000
REMARK  4 active torsions:
REMARK  status: ('A' for Active; 'I' for Inactive)
REMARK    1  A    between atoms: C_2  and  C_3 
REMARK    2  A    between atoms: C_2  and  N_9 
REMARK       I    between atoms: N_9  and  C_10 
REMARK    3  A    between atoms: C_10  and  C_12 
REMARK    4  A    between atoms: C_13  and  C_14 
ROOT
HETATM    1  C   UNK N   1      35.675  15.462  10.750  0.00  0.00     0.114 C 
HETATM    2  C   UNK N   1      35.175  15.138  11.894  0.00  0.00     0.058 C 
HETATM    3  C   UNK N   1      36.814  14.768  10.102  0.00  0.00     0.105 C 
HETATM    4  N   UNK N   1      37.709  14.192   9.630  0.00  0.00    -0.191 NA
ENDROOT
BRANCH   1   5
HETATM    5  C   UNK N   1      35.058  16.676  10.306  0.00  0.00     0.262 C 
HETATM    6  N   UNK N   1      33.900  16.611   9.736  0.00  0.00    -0.348 N 
HETATM    7  H   UNK N   1      33.104  16.272  10.206  0.00  0.00     0.163 HD
HETATM    8  O   UNK N   1      35.725  17.705  10.199  0.00  0.00    -0.267 OA
BRANCH   6   9
HETATM    9  C   UNK N   1      33.850  17.055   8.403  0.00  0.00     0.114 C 
HETATM   10  C   UNK N   1      32.648  17.966   8.225  0.00  0.00     0.037 C 
BRANCH   9  11
HETATM   11  C   UNK N   1      33.881  15.774   7.704  0.00  0.00    -0.036 A 
HETATM   12  C   UNK N   1      35.002  15.474   6.896  0.00  0.00     0.009 A 
HETATM   13  C   UNK N   1      35.234  14.167   6.490  0.00  0.00     0.001 A 
HETATM   14  C   UNK N   1      34.345  13.167   6.883  0.00  0.00     0.000 A 
HETATM   15  C   UNK N   1      33.220  13.478   7.655  0.00  0.00     0.001 A 
HETATM   16  C   UNK N   1      33.000  14.779   8.080  0.00  0.00     0.009 A 
ENDBRANCH   9  11
ENDBRANCH   6   9
ENDBRANCH   1   5
BRANCH   2  17
HETATM   17  C   UNK N   1      35.486  14.112  12.723  0.00  0.00     0.034 A 
HETATM   18  C   UNK N   1      36.378  14.408  13.727  0.00  0.00     0.029 A 
HETATM   19  C   UNK N   1      36.613  13.454  14.686  0.00  0.00     0.005 A 
HETATM   20  C   UNK N   1      35.929  12.233  14.619  0.00  0.00     0.037 A 
HETATM   21  C   UNK N   1      35.044  11.993  13.556  0.00  0.00     0.080 A 
HETATM   22  N   UNK N   1      34.843  12.939  12.637  0.00  0.00    -0.350 N 
HETATM   23 Br   UNK N   1      33.997  10.428  13.423  0.00  0.00    -0.031 Br
ATOM     24  HN  UNK N   1      34.198  12.771  11.866  1.00  0.00     0.166 HD
ENDBRANCH   2  17
TORSDOF 4
ENDMDL
MODEL 2
REMARK VINA RESULT:      -6.7     20.144     22.362
REMARK  4 active torsions:
REMARK  status: ('A' for Active; 'I' for Inactive)
REMARK    1  A    between atoms: C_2  and  C_3 
REMARK    2  A    between atoms: C_2  and  N_9 
REMARK       I    between atoms: N_9  and  C_10 
REMARK    3  A    between atoms: C_10  and  C_12 
REMARK    4  A    between atoms: C_13  and  C_14 
ROOT
HETATM    1  C   UNK N   1      25.918  26.502  -4.603  0.00  0.00     0.114 C 
HETATM    2  C   UNK N   1      25.700  26.732  -5.853  0.00  0.00     0.058 C 
HETATM    3  C   UNK N   1      26.228  25.168  -4.034  0.00  0.00     0.105 C 
HETATM    4  N   UNK N   1      26.471  24.102  -3.632  0.00  0.00    -0.191 NA
ENDROOT
BRANCH   1   5
HETATM    5  C   UNK N   1      25.657  27.700  -3.862  0.00  0.00     0.262 C 
HETATM    6  N   UNK N   1      25.885  28.840  -4.426  0.00  0.00    -0.348 N 
HETATM    7  H   UNK N   1      25.405  29.129  -5.236  0.00  0.00     0.163 HD
HETATM    8  O   UNK N   1      25.504  27.650  -2.642  0.00  0.00    -0.267 OA
BRANCH   6   9
HETATM    9  C   UNK N   1      26.861  29.642  -3.808  0.00  0.00     0.114 C 
HETATM   10  C   UNK N   1      26.337  31.062  -3.687  0.00  0.00     0.037 C 
BRANCH   9  11
HETATM   11  C   UNK N   1      28.001  29.376  -4.680  0.00  0.00    -0.036 A 
HETATM   12  C   UNK N   1      29.058  28.578  -4.185  0.00  0.00     0.009 A 
HETATM   13  C   UNK N   1      29.982  28.030  -5.062  0.00  0.00     0.001 A 
HETATM   14  C   UNK N   1      29.856  28.285  -6.428  0.00  0.00     0.000 A 
HETATM   15  C   UNK N   1      28.827  29.103  -6.906  0.00  0.00     0.001 A 
HETATM   16  C   UNK N   1      27.889  29.633  -6.033  0.00  0.00     0.009 A 
ENDBRANCH   9  11
ENDBRANCH   6   9
ENDBRANCH   1   5
BRANCH   2  17
HETATM   17  C   UNK N   1      25.754  25.893  -6.917  0.00  0.00     0.034 A 
HETATM   18  C   UNK N   1      26.320  26.414  -8.056  0.00  0.00     0.029 A 
HETATM   19  C   UNK N   1      26.540  25.568  -9.115  0.00  0.00     0.005 A 
HETATM   20  C   UNK N   1      26.202  24.214  -8.990  0.00  0.00     0.037 A 
HETATM   21  C   UNK N   1      25.612  23.754  -7.802  0.00  0.00     0.080 A 
HETATM   22  N   UNK N   1      25.406  24.605  -6.794  0.00  0.00    -0.350 N 
HETATM   23 Br   UNK N   1      25.210  21.937  -7.488  0.00  0.00    -0.031 Br
ATOM     24  HN  UNK N   1      24.982  24.274  -5.928  1.00  0.00     0.166 HD
ENDBRANCH   2  17
TORSDOF 4
ENDMDL
MODEL 3
REMARK VINA RESULT:      -6.6      3.137      4.318
REMARK  4 active torsions:
REMARK  status: ('A' for Active; 'I' for Inactive)
REMARK    1  A    between atoms: C_2  and  C_3 
REMARK    2  A    between atoms: C_2  and  N_9 
REMARK       I    between atoms: N_9  and  C_10 
REMARK    3  A    between atoms: C_10  and  C_12 
REMARK    4  A    between atoms: C_13  and  C_14 
ROOT
HETATM    1  C   UNK N   1      33.386  17.160   8.599  0.00  0.00     0.114 C 
HETATM    2  C   UNK N   1      33.612  16.024   9.166  0.00  0.00     0.058 C 
HETATM    3  C   UNK N   1      34.400  18.227   8.417  0.00  0.00     0.105 C 
HETATM    4  N   UNK N   1      35.230  19.035   8.293  0.00  0.00    -0.191 NA
ENDROOT
BRANCH   1   5
HETATM    5  C   UNK N   1      31.984  17.269   8.329  0.00  0.00     0.262 C 
HETATM    6  N   UNK N   1      31.457  16.481   7.450  0.00  0.00    -0.348 N 
HETATM    7  H   UNK N   1      31.452  15.503   7.561  0.00  0.00     0.163 HD
HETATM    8  O   UNK N   1      31.359  18.264   8.697  0.00  0.00    -0.267 OA
BRANCH   6   9
HETATM    9  C   UNK N   1      30.893  17.111   6.327  0.00  0.00     0.114 C 
HETATM   10  C   UNK N   1      29.457  16.644   6.161  0.00  0.00     0.037 C 
BRANCH   9  11
HETATM   11  C   UNK N   1      31.879  16.754   5.311  0.00  0.00    -0.036 A 
HETATM   12  C   UNK N   1      32.415  15.446   5.321  0.00  0.00     0.009 A 
HETATM   13  C   UNK N   1      33.084  14.963   4.206  0.00  0.00     0.001 A 
HETATM   14  C   UNK N   1      33.224  15.786   3.089  0.00  0.00     0.000 A 
HETATM   15  C   UNK N   1      32.720  17.091   3.100  0.00  0.00     0.001 A 
HETATM   16  C   UNK N   1      32.031  17.567   4.205  0.00  0.00     0.009 A 
ENDBRANCH   9  11
ENDBRANCH   6   9
ENDBRANCH   1   5
BRANCH   2  17
HETATM   17  C   UNK N   1      34.766  15.507   9.654  0.00  0.00     0.034 A 
HETATM   18  C   UNK N   1      34.906  15.550  11.021  0.00  0.00     0.029 A 
HETATM   19  C   UNK N   1      35.980  14.906  11.584  0.00  0.00     0.005 A 
HETATM   20  C   UNK N   1      36.875  14.218  10.754  0.00  0.00     0.037 A 
HETATM   21  C   UNK N   1      36.680  14.229   9.364  0.00  0.00     0.080 A 
HETATM   22  N   UNK N   1      35.628  14.870   8.850  0.00  0.00    -0.350 N 
HETATM   23 Br   UNK N   1      37.763  13.254   8.165  0.00  0.00    -0.031 Br
ATOM     24  HN  UNK N   1      35.480  14.876   7.841  1.00  0.00     0.166 HD
ENDBRANCH   2  17
TORSDOF 4
ENDMDL
MODEL 4
REMARK VINA RESULT:      -6.5      3.699      5.266
REMARK  4 active torsions:
REMARK  status: ('A' for Active; 'I' for Inactive)
REMARK    1  A    between atoms: C_2  and  C_3 
REMARK    2  A    between atoms: C_2  and  N_9 
REMARK       I    between atoms: N_9  and  C_10 
REMARK    3  A    between atoms: C_10  and  C_12 
REMARK    4  A    between atoms: C_13  and  C_14 
ROOT
HETATM    1  C   UNK N   1      33.249  17.141   7.890  0.00  0.00     0.114 C 
HETATM    2  C   UNK N   1      33.446  15.888   7.653  0.00  0.00     0.058 C 
HETATM    3  C   UNK N   1      34.326  18.131   8.135  0.00  0.00     0.105 C 
HETATM    4  N   UNK N   1      35.204  18.873   8.319  0.00  0.00    -0.191 NA
ENDROOT
BRANCH   1   5
HETATM    5  C   UNK N   1      31.841  17.367   8.032  0.00  0.00     0.262 C 
HETATM    6  N   UNK N   1      31.022  16.595   7.395  0.00  0.00    -0.348 N 
HETATM    7  H   UNK N   1      30.976  15.627   7.566  0.00  0.00     0.163 HD
HETATM    8  O   UNK N   1      31.430  18.428   8.499  0.00  0.00    -0.267 OA
BRANCH   6   9
HETATM    9  C   UNK N   1      30.202  17.229   6.445  0.00  0.00     0.114 C 
HETATM   10  C   UNK N   1      28.752  16.869   6.717  0.00  0.00     0.037 C 
BRANCH   9  11
HETATM   11  C   UNK N   1      30.831  16.763   5.212  0.00  0.00    -0.036 A 
HETATM   12  C   UNK N   1      31.592  17.682   4.454  0.00  0.00     0.009 A 
HETATM   13  C   UNK N   1      32.465  17.221   3.479  0.00  0.00     0.001 A 
HETATM   14  C   UNK N   1      32.572  15.848   3.258  0.00  0.00     0.000 A 
HETATM   15  C   UNK N   1      31.791  14.947   3.990  0.00  0.00     0.001 A 
HETATM   16  C   UNK N   1      30.935  15.405   4.980  0.00  0.00     0.009 A 
ENDBRANCH   9  11
ENDBRANCH   6   9
ENDBRANCH   1   5
BRANCH   2  17
HETATM   17  C   UNK N   1      34.604  15.199   7.509  0.00  0.00     0.034 A 
HETATM   18  C   UNK N   1      35.088  15.111   6.225  0.00  0.00     0.029 A 
HETATM   19  C   UNK N   1      36.331  14.559   6.037  0.00  0.00     0.005 A 
HETATM   20  C   UNK N   1      37.062  14.128   7.151  0.00  0.00     0.037 A 
HETATM   21  C   UNK N   1      36.500  14.233   8.433  0.00  0.00     0.080 A 
HETATM   22  N   UNK N   1      35.286  14.770   8.580  0.00  0.00    -0.350 N 
HETATM   23 Br   UNK N   1      37.434  13.778  10.008  0.00  0.00    -0.031 Br
ATOM     24  HN  UNK N   1      34.875  14.852   9.509  1.00  0.00     0.166 HD
ENDBRANCH   2  17
TORSDOF 4
ENDMDL
MODEL 5
REMARK VINA RESULT:      -6.5     16.958     20.157
REMARK  4 active torsions:
REMARK  status: ('A' for Active; 'I' for Inactive)
REMARK    1  A    between atoms: C_2  and  C_3 
REMARK    2  A    between atoms: C_2  and  N_9 
REMARK       I    between atoms: N_9  and  C_10 
REMARK    3  A    between atoms: C_10  and  C_12 
REMARK    4  A    between atoms: C_13  and  C_14 
ROOT
HETATM    1  C   UNK N   1      28.923  25.962  -3.834  0.00  0.00     0.114 C 
HETATM    2  C   UNK N   1      30.027  25.327  -4.037  0.00  0.00     0.058 C 
HETATM    3  C   UNK N   1      27.598  25.315  -3.671  0.00  0.00     0.105 C 
HETATM    4  N   UNK N   1      26.579  24.765  -3.547  0.00  0.00    -0.191 NA
ENDROOT
BRANCH   1   5
HETATM    5  C   UNK N   1      29.171  27.368  -3.950  0.00  0.00     0.262 C 
HETATM    6  N   UNK N   1      28.163  28.169  -4.062  0.00  0.00    -0.348 N 
HETATM    7  H   UNK N   1      27.483  28.256  -3.355  0.00  0.00     0.163 HD
HETATM    8  O   UNK N   1      30.298  27.775  -4.230  0.00  0.00    -0.267 OA
BRANCH   6   9
HETATM    9  C   UNK N   1      28.101  28.908  -5.256  0.00  0.00     0.114 C 
HETATM   10  C   UNK N   1      27.896  30.376  -4.925  0.00  0.00     0.037 C 
BRANCH   9  11
HETATM   11  C   UNK N   1      27.043  28.182  -5.952  0.00  0.00    -0.036 A 
HETATM   12  C   UNK N   1      27.374  27.475  -7.131  0.00  0.00     0.009 A 
HETATM   13  C   UNK N   1      26.504  26.517  -7.633  0.00  0.00     0.001 A 
HETATM   14  C   UNK N   1      25.305  26.274  -6.964  0.00  0.00     0.000 A 
HETATM   15  C   UNK N   1      24.969  27.002  -5.817  0.00  0.00     0.001 A 
HETATM   16  C   UNK N   1      25.849  27.942  -5.302  0.00  0.00     0.009 A 
ENDBRANCH   9  11
ENDBRANCH   6   9
ENDBRANCH   1   5
BRANCH   2  17
HETATM   17  C   UNK N   1      30.271  23.995  -4.089  0.00  0.00     0.034 A 
HETATM   18  C   UNK N   1      30.631  23.409  -2.898  0.00  0.00     0.029 A 
HETATM   19  C   UNK N   1      30.741  22.041  -2.857  0.00  0.00     0.005 A 
HETATM   20  C   UNK N   1      30.466  21.297  -4.012  0.00  0.00     0.037 A 
HETATM   21  C   UNK N   1      30.119  21.963  -5.198  0.00  0.00     0.080 A 
HETATM   22  N   UNK N   1      30.027  23.295  -5.206  0.00  0.00    -0.350 N 
HETATM   23 Br   UNK N   1      29.632  21.059  -6.781  0.00  0.00    -0.031 Br
ATOM     24  HN  UNK N   1      29.771  23.782  -6.064  1.00  0.00     0.166 HD
ENDBRANCH   2  17
TORSDOF 4
ENDMDL
MODEL 6
REMARK VINA RESULT:      -6.4     17.561     20.792
REMARK  4 active torsions:
REMARK  status: ('A' for Active; 'I' for Inactive)
REMARK    1  A    between atoms: C_2  and  C_3 
REMARK    2  A    between atoms: C_2  and  N_9 
REMARK       I    between atoms: N_9  and  C_10 
REMARK    3  A    between atoms: C_10  and  C_12 
REMARK    4  A    between atoms: C_13  and  C_14 
ROOT
HETATM    1  C   UNK N   1      27.330  23.759  -5.543  0.00  0.00     0.114 C 
HETATM    2  C   UNK N   1      28.507  23.336  -5.860  0.00  0.00     0.058 C 
HETATM    3  C   UNK N   1      26.939  24.220  -4.189  0.00  0.00     0.105 C 
HETATM    4  N   UNK N   1      26.677  24.575  -3.111  0.00  0.00    -0.191 NA
ENDROOT
BRANCH   1   5
HETATM    5  C   UNK N   1      26.453  23.558  -6.657  0.00  0.00     0.262 C 
HETATM    6  N   UNK N   1      26.612  24.289  -7.712  0.00  0.00    -0.348 N 
HETATM    7  H   UNK N   1      27.440  24.266  -8.244  0.00  0.00     0.163 HD
HETATM    8  O   UNK N   1      25.406  22.927  -6.513  0.00  0.00    -0.267 OA
BRANCH   6   9
HETATM    9  C   UNK N   1      25.526  25.116  -8.049  0.00  0.00     0.114 C 
HETATM   10  C   UNK N   1      25.314  25.074  -9.552  0.00  0.00     0.037 C 
BRANCH   9  11
HETATM   11  C   UNK N   1      25.952  26.365  -7.426  0.00  0.00    -0.036 A 
HETATM   12  C   UNK N   1      25.292  26.792  -6.250  0.00  0.00     0.009 A 
HETATM   13  C   UNK N   1      25.865  27.770  -5.450  0.00  0.00     0.001 A 
HETATM   14  C   UNK N   1      27.087  28.325  -5.827  0.00  0.00     0.000 A 
HETATM   15  C   UNK N   1      27.717  27.922  -7.010  0.00  0.00     0.001 A 
HETATM   16  C   UNK N   1      27.157  26.928  -7.798  0.00  0.00     0.009 A 
ENDBRANCH   9  11
ENDBRANCH   6   9
ENDBRANCH   1   5
BRANCH   2  17
HETATM   17  C   UNK N   1      29.638  23.264  -5.117  0.00  0.00     0.034 A 
HETATM   18  C   UNK N   1      29.742  22.166  -4.296  0.00  0.00     0.029 A 
HETATM   19  C   UNK N   1      30.928  21.960  -3.636  0.00  0.00     0.005 A 
HETATM   20  C   UNK N   1      31.986  22.856  -3.837  0.00  0.00     0.037 A 
HETATM   21  C   UNK N   1      31.805  23.965  -4.678  0.00  0.00     0.080 A 
HETATM   22  N   UNK N   1      30.637  24.139  -5.300  0.00  0.00    -0.350 N 
HETATM   23 Br   UNK N   1      33.191  25.176  -5.099  0.00  0.00    -0.031 Br
ATOM     24  HN  UNK N   1      30.503  24.940  -5.915  1.00  0.00     0.166 HD
ENDBRANCH   2  17
TORSDOF 4
ENDMDL
MODEL 7
REMARK VINA RESULT:      -6.4     16.986     20.160
REMARK  4 active torsions:
REMARK  status: ('A' for Active; 'I' for Inactive)
REMARK    1  A    between atoms: C_2  and  C_3 
REMARK    2  A    between atoms: C_2  and  N_9 
REMARK       I    between atoms: N_9  and  C_10 
REMARK    3  A    between atoms: C_10  and  C_12 
REMARK    4  A    between atoms: C_13  and  C_14 
ROOT
HETATM    1  C   UNK N   1      28.240  25.301  -4.179  0.00  0.00     0.114 C 
HETATM    2  C   UNK N   1      28.315  24.021  -4.043  0.00  0.00     0.058 C 
HETATM    3  C   UNK N   1      29.409  26.212  -4.238  0.00  0.00     0.105 C 
HETATM    4  N   UNK N   1      30.356  26.888  -4.283  0.00  0.00    -0.191 NA
ENDROOT
BRANCH   1   5
HETATM    5  C   UNK N   1      26.864  25.692  -4.102  0.00  0.00     0.262 C 
HETATM    6  N   UNK N   1      26.252  26.028  -5.190  0.00  0.00    -0.348 N 
HETATM    7  H   UNK N   1      26.125  25.396  -5.935  0.00  0.00     0.163 HD
HETATM    8  O   UNK N   1      26.364  25.983  -3.016  0.00  0.00    -0.267 OA
BRANCH   6   9
HETATM    9  C   UNK N   1      25.780  27.351  -5.241  0.00  0.00     0.114 C 
HETATM   10  C   UNK N   1      24.300  27.341  -5.579  0.00  0.00     0.037 C 
BRANCH   9  11
HETATM   11  C   UNK N   1      26.724  27.923  -6.196  0.00  0.00    -0.036 A 
HETATM   12  C   UNK N   1      27.482  29.050  -5.803  0.00  0.00     0.009 A 
HETATM   13  C   UNK N   1      28.606  29.418  -6.530  0.00  0.00     0.001 A 
HETATM   14  C   UNK N   1      28.964  28.668  -7.650  0.00  0.00     0.000 A 
HETATM   15  C   UNK N   1      28.189  27.575  -8.052  0.00  0.00     0.001 A 
HETATM   16  C   UNK N   1      27.080  27.193  -7.313  0.00  0.00     0.009 A 
ENDBRANCH   9  11
ENDBRANCH   6   9
ENDBRANCH   1   5
BRANCH   2  17
HETATM   17  C   UNK N   1      29.401  23.212  -3.987  0.00  0.00     0.034 A 
HETATM   18  C   UNK N   1      30.073  23.199  -2.788  0.00  0.00     0.029 A 
HETATM   19  C   UNK N   1      31.086  22.288  -2.622  0.00  0.00     0.005 A 
HETATM   20  C   UNK N   1      31.383  21.399  -3.664  0.00  0.00     0.037 A 
HETATM   21  C   UNK N   1      30.667  21.479  -4.868  0.00  0.00     0.080 A 
HETATM   22  N   UNK N   1      29.691  22.381  -4.998  0.00  0.00    -0.350 N 
HETATM   23 Br   UNK N   1      30.914  20.269  -6.295  0.00  0.00    -0.031 Br
ATOM     24  HN  UNK N   1      29.165  22.439  -5.869  1.00  0.00     0.166 HD
ENDBRANCH   2  17
TORSDOF 4
ENDMDL
MODEL 8
REMARK VINA RESULT:      -6.3      4.274      6.479
REMARK  4 active torsions:
REMARK  status: ('A' for Active; 'I' for Inactive)
REMARK    1  A    between atoms: C_2  and  C_3 
REMARK    2  A    between atoms: C_2  and  N_9 
REMARK       I    between atoms: N_9  and  C_10 
REMARK    3  A    between atoms: C_10  and  C_12 
REMARK    4  A    between atoms: C_13  and  C_14 
ROOT
HETATM    1  C   UNK N   1      30.132  17.314   7.687  0.00  0.00     0.114 C 
HETATM    2  C   UNK N   1      31.244  16.764   7.335  0.00  0.00     0.058 C 
HETATM    3  C   UNK N   1      29.946  18.127   8.913  0.00  0.00     0.105 C 
HETATM    4  N   UNK N   1      29.847  18.760   9.886  0.00  0.00    -0.191 NA
ENDROOT
BRANCH   1   5
HETATM    5  C   UNK N   1      29.100  16.878   6.794  0.00  0.00     0.262 C 
HETATM    6  N   UNK N   1      29.425  16.145   5.780  0.00  0.00    -0.348 N 
HETATM    7  H   UNK N   1      29.834  15.256   5.888  0.00  0.00     0.163 HD
HETATM    8  O   UNK N   1      27.994  17.417   6.818  0.00  0.00    -0.267 OA
BRANCH   6   9
HETATM    9  C   UNK N   1      29.158  16.699   4.516  0.00  0.00     0.114 C 
HETATM   10  C   UNK N   1      28.006  15.946   3.874  0.00  0.00     0.037 C 
BRANCH   9  11
HETATM   11  C   UNK N   1      30.485  16.617   3.914  0.00  0.00    -0.036 A 
HETATM   12  C   UNK N   1      31.372  17.705   4.085  0.00  0.00     0.009 A 
HETATM   13  C   UNK N   1      32.726  17.542   3.829  0.00  0.00     0.001 A 
HETATM   14  C   UNK N   1      33.190  16.301   3.394  0.00  0.00     0.000 A 
HETATM   15  C   UNK N   1      32.300  15.239   3.195  0.00  0.00     0.001 A 
HETATM   16  C   UNK N   1      30.951  15.394   3.474  0.00  0.00     0.009 A 
ENDBRANCH   9  11
ENDBRANCH   6   9
ENDBRANCH   1   5
BRANCH   2  17
HETATM   17  C   UNK N   1      32.470  16.828   7.910  0.00  0.00     0.034 A 
HETATM   18  C   UNK N   1      33.230  17.923   7.571  0.00  0.00     0.029 A 
HETATM   19  C   UNK N   1      34.414  18.121   8.237  0.00  0.00     0.005 A 
HETATM   20  C   UNK N   1      34.792  17.221   9.242  0.00  0.00     0.037 A 
HETATM   21  C   UNK N   1      33.974  16.115   9.525  0.00  0.00     0.080 A 
HETATM   22  N   UNK N   1      32.832  15.949   8.855  0.00  0.00    -0.350 N 
HETATM   23 Br   UNK N   1      34.335  14.900  10.923  0.00  0.00    -0.031 Br
ATOM     24  HN  UNK N   1      32.233  15.151   9.061  1.00  0.00     0.166 HD
ENDBRANCH   2  17
TORSDOF 4
ENDMDL
MODEL 9
REMARK VINA RESULT:      -6.3      3.512      5.957
REMARK  4 active torsions:
REMARK  status: ('A' for Active; 'I' for Inactive)
REMARK    1  A    between atoms: C_2  and  C_3 
REMARK    2  A    between atoms: C_2  and  N_9 
REMARK       I    between atoms: N_9  and  C_10 
REMARK    3  A    between atoms: C_10  and  C_12 
REMARK    4  A    between atoms: C_13  and  C_14 
ROOT
HETATM    1  C   UNK N   1      34.213  16.591   9.228  0.00  0.00     0.114 C 
HETATM    2  C   UNK N   1      33.055  16.100   8.943  0.00  0.00     0.058 C 
HETATM    3  C   UNK N   1      34.706  17.911   8.765  0.00  0.00     0.105 C 
HETATM    4  N   UNK N   1      35.049  18.955   8.381  0.00  0.00    -0.191 NA
ENDROOT
BRANCH   1   5
HETATM    5  C   UNK N   1      34.979  15.594   9.916  0.00  0.00     0.262 C 
HETATM    6  N   UNK N   1      35.956  15.022   9.292  0.00  0.00    -0.348 N 
HETATM    7  H   UNK N   1      36.736  15.527   8.967  0.00  0.00     0.163 HD
HETATM    8  O   UNK N   1      34.547  15.089  10.951  0.00  0.00    -0.267 OA
BRANCH   6   9
HETATM    9  C   UNK N   1      35.833  13.634   9.109  0.00  0.00     0.114 C 
HETATM   10  C   UNK N   1      37.123  12.957   9.535  0.00  0.00     0.037 C 
BRANCH   9  11
HETATM   11  C   UNK N   1      35.439  13.595   7.703  0.00  0.00    -0.036 A 
HETATM   12  C   UNK N   1      34.217  12.971   7.362  0.00  0.00     0.009 A 
HETATM   13  C   UNK N   1      33.648  13.197   6.117  0.00  0.00     0.001 A 
HETATM   14  C   UNK N   1      34.302  14.034   5.214  0.00  0.00     0.000 A 
HETATM   15  C   UNK N   1      35.528  14.620   5.547  0.00  0.00     0.001 A 
HETATM   16  C   UNK N   1      36.086  14.414   6.799  0.00  0.00     0.009 A 
ENDBRANCH   9  11
ENDBRANCH   6   9
ENDBRANCH   1   5
BRANCH   2  17
HETATM   17  C   UNK N   1      32.024  16.643   8.250  0.00  0.00     0.034 A 
HETATM   18  C   UNK N   1      32.101  16.529   6.882  0.00  0.00     0.029 A 
HETATM   19  C   UNK N   1      31.017  16.922   6.138  0.00  0.00     0.005 A 
HETATM   20  C   UNK N   1      29.875  17.402   6.793  0.00  0.00     0.037 A 
HETATM   21  C   UNK N   1      29.872  17.507   8.193  0.00  0.00     0.080 A 
HETATM   22  N   UNK N   1      30.945  17.121   8.886  0.00  0.00    -0.350 N 
HETATM   23 Br   UNK N   1      28.357  18.043   9.182  0.00  0.00    -0.031 Br
ATOM     24  HN  UNK N   1      30.946  17.191   9.903  1.00  0.00     0.166 HD
ENDBRANCH   2  17
TORSDOF 4
ENDMDL
