REMARK  14 active torsions:
REMARK  status: ('A' for Active; 'I' for Inactive)
REMARK    1  A    between atoms: S_2  and  N_5 
REMARK       I    between atoms: N_5  and  C_6 
REMARK    2  A    between atoms: C_6  and  C_8 
REMARK    3  A    between atoms: C_8  and  C_9 
REMARK    4  A    between atoms: C_9  and  C_10 
REMARK    5  A    between atoms: C_10  and  C_11 
REMARK    6  A    between atoms: C_12  and  C_13 
REMARK    7  A    between atoms: C_14  and  C_13 
REMARK    8  A    between atoms: C_15  and  C_21 
REMARK    9  A    between atoms: C_16  and  O_20 
REMARK   10  A    between atoms: C_22  and  C_23 
REMARK   11  A    between atoms: C_23  and  C_24 
REMARK   12  A    between atoms: C_23  and  O_32 
REMARK   13  A    between atoms: C_24  and  O_25 
REMARK   14  A    between atoms: O_25  and  C_26 
ROOT
HETATM    1  C   UNK N   1       2.486  -4.355  -0.173  0.00  0.00     0.069 C 
HETATM    2  C   UNK N   1       3.889  -4.919  -0.350  0.00  0.00     0.048 C 
HETATM    3  C   UNK N   1       3.668  -6.408  -0.645  0.00  0.00     0.133 C 
HETATM    4  C   UNK N   1       2.446  -6.835   0.149  0.00  0.00     0.111 C 
HETATM    5  C   UNK N   1       1.696  -5.558   0.211  0.00  0.00     0.134 C 
HETATM    6  O   UNK N   1       0.521  -5.503   0.537  0.00  0.00    -0.297 OA
ENDROOT
BRANCH   1   7
HETATM    7  C   UNK N   1       1.979  -3.784  -1.490  0.00  0.00     0.040 C 
BRANCH   7   8
HETATM    8  C   UNK N   1       1.260  -2.489  -1.259  0.00  0.00    -0.030 C 
HETATM    9  C   UNK N   1       1.877  -1.381  -0.825  0.00  0.00    -0.031 C 
BRANCH   9  10
HETATM   10  C   UNK N   1       3.347  -1.326  -0.545  0.00  0.00     0.027 C 
BRANCH  10  11
HETATM   11  C   UNK N   1       3.548  -1.200   0.956  0.00  0.00     0.013 C 
BRANCH  11  12
HETATM   12  C   UNK N   1       4.708  -0.278   1.313  0.00  0.00     0.104 C 
BRANCH  12  13
HETATM   13  C   UNK N   1       4.485   1.113   0.808  0.00  0.00     0.230 C 
HETATM   14  N   UNK N   1       5.492   1.770   0.182  0.00  0.00    -0.255 N 
HETATM   15  H   UNK N   1       6.366   1.323   0.096  0.00  0.00     0.181 HD
HETATM   16  O   UNK N   1       3.403   1.656   0.980  0.00  0.00    -0.273 OA
BRANCH  14  17
HETATM   17  S   UNK N   1       5.304   3.392  -0.486  0.00  0.00     0.229 S 
HETATM   18  C   UNK N   1       6.335   4.841  -0.136  0.00  0.00     0.186 C 
HETATM   19  O   UNK N   1       5.284   3.739   1.012  0.00  0.00    -0.206 OA
HETATM   20  O   UNK N   1       6.799   3.119  -0.710  0.00  0.00    -0.206 OA
ENDBRANCH  14  17
ENDBRANCH  12  13
ENDBRANCH  11  12
ENDBRANCH  10  11
ENDBRANCH   9  10
ENDBRANCH   7   8
ENDBRANCH   1   7
BRANCH   2  21
HETATM   21  C   UNK N   1       4.669  -4.706   0.921  0.00  0.00    -0.020 C 
HETATM   22  C   UNK N   1       5.767  -3.938   0.948  0.00  0.00     0.003 C 
BRANCH  22  23
HETATM   23  C   UNK N   1       6.263  -3.226  -0.276  0.00  0.00     0.165 C 
BRANCH  23  24
HETATM   24  C   UNK N   1       7.108  -4.135  -1.161  0.00  0.00     0.211 C 
BRANCH  24  25
HETATM   25  O   UNK N   1       8.422  -4.139  -0.743  0.00  0.00    -0.348 OA
BRANCH  25  26
HETATM   26  C   UNK N   1       9.086  -5.245  -0.336  0.00  0.00     0.068 A 
HETATM   27  C   UNK N   1      10.434  -5.128   0.018  0.00  0.00     0.037 A 
HETATM   28  C   UNK N   1      11.153  -6.248   0.442  0.00  0.00     0.003 A 
HETATM   29  C   UNK N   1      10.525  -7.494   0.517  0.00  0.00     0.000 A 
HETATM   30  C   UNK N   1       9.178  -7.621   0.166  0.00  0.00     0.003 A 
HETATM   31  C   UNK N   1       8.458  -6.501  -0.261  0.00  0.00     0.037 A 
ENDBRANCH  25  26
ENDBRANCH  24  25
ENDBRANCH  23  24
BRANCH  23  32
HETATM   32  O   UNK N   1       6.971  -2.077   0.082  0.00  0.00    -0.390 OA
HETATM   33  H   UNK N   1       7.908  -2.104   0.330  0.00  0.00     0.210 HD
ENDBRANCH  23  32
ENDBRANCH  22  23
ENDBRANCH   2  21
BRANCH   3  34
HETATM   34  O   UNK N   1       4.786  -7.194  -0.356  0.00  0.00    -0.394 OA
HETATM   35  H   UNK N   1       4.701  -8.139  -0.154  0.00  0.00     0.210 HD
ENDBRANCH   3  34
TORSDOF 14
