REMARK  0 active torsions:
REMARK  status: ('A' for Active; 'I' for Inactive)
ROOT
HETATM    1  O   UNK N   1      -1.398  -2.992   0.016  0.00  0.00    -0.267 OA
HETATM    2  C   UNK N   1      -1.593  -1.788   0.009  0.00  0.00     0.259 A 
HETATM    3  N   UNK N   1      -2.831  -1.243   0.021  0.00  0.00    -0.322 N 
HETATM    4  C   UNK N   1      -2.665   0.159   0.009  0.00  0.00     0.046 A 
HETATM    5  C   UNK N   1      -3.670   1.124   0.020  0.00  0.00     0.030 A 
HETATM    6  C   UNK N   1      -3.284   2.478   0.008  0.00  0.00     0.002 A 
HETATM    7  C   UNK N   1      -1.918   2.834  -0.015  0.00  0.00     0.001 A 
HETATM    8  C   UNK N   1      -0.927   1.840  -0.025  0.00  0.00     0.015 A 
HETATM    9  C   UNK N   1      -1.334   0.506  -0.012  0.00  0.00     0.009 A 
HETATM   10  C   UNK N   1      -0.560  -0.733  -0.011  0.00  0.00     0.075 A 
HETATM   11  C   UNK N   1       0.783  -0.814  -0.018  0.00  0.00     0.101 A 
HETATM   12  N   UNK N   1       1.612   0.336  -0.030  0.00  0.00    -0.351 N 
HETATM   13  C   UNK N   1       2.944  -0.118  -0.017  0.00  0.00     0.047 A 
HETATM   14  C   UNK N   1       4.084   0.677  -0.015  0.00  0.00     0.030 A 
HETATM   15  C   UNK N   1       5.333   0.036   0.006  0.00  0.00     0.002 A 
HETATM   16  C   UNK N   1       5.413  -1.374   0.024  0.00  0.00     0.001 A 
HETATM   17  C   UNK N   1       4.242  -2.157   0.021  0.00  0.00     0.018 A 
HETATM   18  C   UNK N   1       3.016  -1.496  -0.000  0.00  0.00     0.043 A 
HETATM   19  C   UNK N   1       1.649  -2.005  -0.004  0.00  0.00     0.212 A 
HETATM   20  O   UNK N   1       1.311  -3.177   0.011  0.00  0.00    -0.285 OA
HETATM   21  H   UNK N   1      -3.686  -1.731   0.035  0.00  0.00     0.169 HD
HETATM   22  H   UNK N   1       1.313   1.274  -0.046  0.00  0.00     0.166 HD
ENDROOT
TORSDOF 0
