REMARK  3 active torsions:
REMARK  status: ('A' for Active; 'I' for Inactive)
REMARK    1  A    between atoms: C_4  and  S_7 
REMARK    2  A    between atoms: S_7  and  C_10 
REMARK    3  A    between atoms: C_16  and  N_21 
ROOT
HETATM    1  C   UNK N   1       0.835  -0.012  -0.408  0.00  0.00     0.080 A 
HETATM    2  C   UNK N   1       2.064   0.648  -0.260  0.00  0.00     0.039 A 
HETATM    3  C   UNK N   1       3.246  -0.106  -0.139  0.00  0.00    -0.006 A 
HETATM    4  C   UNK N   1       4.479   0.524   0.026  0.00  0.00     0.014 A 
HETATM    5  C   UNK N   1       5.641  -0.241   0.168  0.00  0.00     0.003 A 
HETATM    6  C   UNK N   1       5.576  -1.639   0.135  0.00  0.00     0.032 A 
HETATM    7  C   UNK N   1       4.352  -2.302  -0.055  0.00  0.00     0.058 A 
HETATM    8  C   UNK N   1       3.175  -1.521  -0.181  0.00  0.00     0.069 A 
HETATM    9  N   UNK N   1       1.970  -2.117  -0.318  0.00  0.00    -0.362 N 
ATOM     10  HN  UNK N   1       1.925  -3.136  -0.336  1.00  0.00     0.165 HD
HETATM   11  C   UNK N   1       0.825  -1.414  -0.432  0.00  0.00     0.112 A 
ENDROOT
BRANCH   1  12
HETATM   12  S   UNK N   1      -0.730   0.901  -0.592  0.00  0.00     0.208 S 
HETATM   13  O   UNK N   1      -1.360  -0.294  -1.332  0.00  0.00    -0.217 OA
HETATM   14  O   UNK N   1      -0.882   0.295   0.816  0.00  0.00    -0.217 OA
BRANCH  12  15
HETATM   15  C   UNK N   1      -2.400   1.478  -0.158  0.00  0.00     0.064 A 
HETATM   16  C   UNK N   1      -2.690   2.846  -0.192  0.00  0.00     0.024 A 
HETATM   17  C   UNK N   1      -3.984   3.297   0.095  0.00  0.00     0.002 A 
HETATM   18  C   UNK N   1      -4.996   2.386   0.416  0.00  0.00     0.000 A 
HETATM   19  C   UNK N   1      -4.722   1.019   0.445  0.00  0.00     0.002 A 
HETATM   20  C   UNK N   1      -3.437   0.566   0.153  0.00  0.00     0.024 A 
ENDBRANCH  12  15
ENDBRANCH   1  12
BRANCH   7  21
HETATM   21  N   UNK N   1       4.317  -3.742  -0.117  0.00  0.00    -0.376 N 
HETATM   22  C   UNK N   1       5.452  -4.524   0.339  0.00  0.00     0.142 C 
HETATM   23  C   UNK N   1       5.059  -5.999   0.483  0.00  0.00     0.133 C 
HETATM   24  N   UNK N   1       3.747  -6.094   1.128  0.00  0.00    -0.418 N 
HETATM   25  C   UNK N   1       2.685  -5.537   0.276  0.00  0.00     0.133 C 
HETATM   26  H   UNK N   1       3.590  -6.496   2.052  0.00  0.00     0.153 HD
HETATM   27  C   UNK N   1       3.184  -4.453  -0.684  0.00  0.00     0.142 C 
ENDBRANCH   7  21
TORSDOF 3
