MODEL 1
REMARK VINA RESULT:      -7.4      0.000      0.000
REMARK  5 active torsions:
REMARK  status: ('A' for Active; 'I' for Inactive)
REMARK    1  A    between atoms: C_3  and  C_8 
REMARK    2  A    between atoms: C_6  and  O_7 
REMARK    3  A    between atoms: C_8  and  C_9 
REMARK    4  A    between atoms: C_12  and  O_13 
REMARK    5  A    between atoms: C_19  and  O_20 
ROOT
HETATM    1  C   UNK N   1      28.116  23.507  -5.815  0.00  0.00     0.114 C 
HETATM    2  C   UNK N   1      29.152  22.807  -4.935  0.00  0.00    -0.026 A 
HETATM    3  C   UNK N   1      29.439  23.301  -3.660  0.00  0.00     0.049 A 
HETATM    4  C   UNK N   1      30.374  22.677  -2.835  0.00  0.00     0.099 A 
HETATM    5  N   UNK N   1      27.882  22.791  -7.081  0.00  0.00    -0.412 N 
HETATM    6  C   UNK N   1      29.118  22.284  -7.664  0.00  0.00     0.119 C 
HETATM    7  C   UNK N   1      29.657  21.163  -6.787  0.00  0.00     0.058 C 
HETATM    8  C   UNK N   1      29.863  21.678  -5.401  0.00  0.00    -0.045 A 
HETATM    9  C   UNK N   1      30.804  21.051  -4.574  0.00  0.00     0.047 A 
HETATM   10  C   UNK N   1      31.053  21.542  -3.290  0.00  0.00     0.099 A 
HETATM   11  H   UNK N   1      26.961  22.665  -7.501  0.00  0.00     0.153 HD
ENDROOT
BRANCH   1  12
HETATM   12  C   UNK N   1      26.740  23.630  -5.139  0.00  0.00     0.068 C 
BRANCH  12  13
HETATM   13  C   UNK N   1      26.281  25.012  -4.763  0.00  0.00    -0.056 A 
HETATM   14  C   UNK N   1      26.705  25.574  -3.552  0.00  0.00     0.010 A 
HETATM   15  C   UNK N   1      26.353  26.890  -3.224  0.00  0.00     0.037 A 
HETATM   16  C   UNK N   1      25.586  27.652  -4.112  0.00  0.00     0.065 A 
HETATM   17  C   UNK N   1      25.170  27.099  -5.323  0.00  0.00     0.037 A 
HETATM   18  C   UNK N   1      25.527  25.790  -5.649  0.00  0.00     0.010 A 
BRANCH  16  19
HETATM   19  O   UNK N   1      25.255  28.916  -3.804  0.00  0.00    -0.361 OA
HETATM   20  H   UNK N   1      24.735  29.436  -4.385  0.00  0.00     0.217 HD
ENDBRANCH  16  19
ENDBRANCH  12  13
ENDBRANCH   1  12
BRANCH   4  21
HETATM   21  O   UNK N   1      30.610  23.169  -1.608  0.00  0.00    -0.358 OA
HETATM   22  H   UNK N   1      30.725  22.588  -0.882  0.00  0.00     0.217 HD
ENDBRANCH   4  21
BRANCH  10  23
HETATM   23  O   UNK N   1      31.951  20.929  -2.501  0.00  0.00    -0.358 OA
HETATM   24  H   UNK N   1      32.099  21.235  -1.627  0.00  0.00     0.217 HD
ENDBRANCH  10  23
TORSDOF 5
ENDMDL
MODEL 2
REMARK VINA RESULT:      -7.2     10.522     12.051
REMARK  5 active torsions:
REMARK  status: ('A' for Active; 'I' for Inactive)
REMARK    1  A    between atoms: C_3  and  C_8 
REMARK    2  A    between atoms: C_6  and  O_7 
REMARK    3  A    between atoms: C_8  and  C_9 
REMARK    4  A    between atoms: C_12  and  O_13 
REMARK    5  A    between atoms: C_19  and  O_20 
ROOT
HETATM    1  C   UNK N   1      28.997  18.040   4.791  0.00  0.00     0.114 C 
HETATM    2  C   UNK N   1      29.197  17.793   6.287  0.00  0.00    -0.026 A 
HETATM    3  C   UNK N   1      28.230  18.213   7.203  0.00  0.00     0.049 A 
HETATM    4  C   UNK N   1      28.385  17.993   8.572  0.00  0.00     0.099 A 
HETATM    5  N   UNK N   1      30.071  17.447   3.978  0.00  0.00    -0.412 N 
HETATM    6  C   UNK N   1      31.386  17.629   4.582  0.00  0.00     0.119 C 
HETATM    7  C   UNK N   1      31.472  16.783   5.845  0.00  0.00     0.058 C 
HETATM    8  C   UNK N   1      30.370  17.173   6.775  0.00  0.00    -0.045 A 
HETATM    9  C   UNK N   1      30.529  16.953   8.148  0.00  0.00     0.047 A 
HETATM   10  C   UNK N   1      29.535  17.353   9.046  0.00  0.00     0.099 A 
HETATM   11  H   UNK N   1      29.914  16.964   3.093  0.00  0.00     0.153 HD
ENDROOT
BRANCH   1  12
HETATM   12  C   UNK N   1      27.684  17.444   4.256  0.00  0.00     0.068 C 
BRANCH  12  13
HETATM   13  C   UNK N   1      26.600  18.411   3.866  0.00  0.00    -0.056 A 
HETATM   14  C   UNK N   1      25.258  18.032   3.997  0.00  0.00     0.010 A 
HETATM   15  C   UNK N   1      24.236  18.949   3.716  0.00  0.00     0.037 A 
HETATM   16  C   UNK N   1      24.553  20.251   3.314  0.00  0.00     0.065 A 
HETATM   17  C   UNK N   1      25.889  20.635   3.191  0.00  0.00     0.037 A 
HETATM   18  C   UNK N   1      26.905  19.721   3.478  0.00  0.00     0.010 A 
BRANCH  16  19
HETATM   19  O   UNK N   1      23.576  21.134   3.053  0.00  0.00    -0.361 OA
HETATM   20  H   UNK N   1      23.752  22.053   3.014  0.00  0.00     0.217 HD
ENDBRANCH  16  19
ENDBRANCH  12  13
ENDBRANCH   1  12
BRANCH   4  21
HETATM   21  O   UNK N   1      27.426  18.394   9.422  0.00  0.00    -0.358 OA
HETATM   22  H   UNK N   1      27.436  19.266   9.765  0.00  0.00     0.217 HD
ENDBRANCH   4  21
BRANCH  10  23
HETATM   23  O   UNK N   1      29.691  17.130  10.362  0.00  0.00    -0.358 OA
HETATM   24  H   UNK N   1      30.523  16.859  10.700  0.00  0.00     0.217 HD
ENDBRANCH  10  23
TORSDOF 5
ENDMDL
MODEL 3
REMARK VINA RESULT:      -6.9     13.411     14.794
REMARK  5 active torsions:
REMARK  status: ('A' for Active; 'I' for Inactive)
REMARK    1  A    between atoms: C_3  and  C_8 
REMARK    2  A    between atoms: C_6  and  O_7 
REMARK    3  A    between atoms: C_8  and  C_9 
REMARK    4  A    between atoms: C_12  and  O_13 
REMARK    5  A    between atoms: C_19  and  O_20 
ROOT
HETATM    1  C   UNK N   1      22.262  17.774   5.155  0.00  0.00     0.114 C 
HETATM    2  C   UNK N   1      21.647  18.606   4.029  0.00  0.00    -0.026 A 
HETATM    3  C   UNK N   1      20.318  18.401   3.651  0.00  0.00     0.049 A 
HETATM    4  C   UNK N   1      19.731  19.152   2.633  0.00  0.00     0.099 A 
HETATM    5  N   UNK N   1      23.636  18.194   5.474  0.00  0.00    -0.412 N 
HETATM    6  C   UNK N   1      24.412  18.499   4.278  0.00  0.00     0.119 C 
HETATM    7  C   UNK N   1      23.859  19.764   3.637  0.00  0.00     0.058 C 
HETATM    8  C   UNK N   1      22.411  19.567   3.329  0.00  0.00    -0.045 A 
HETATM    9  C   UNK N   1      21.824  20.321   2.306  0.00  0.00     0.047 A 
HETATM   10  C   UNK N   1      20.484  20.122   1.963  0.00  0.00     0.099 A 
HETATM   11  H   UNK N   1      24.003  18.265   6.423  0.00  0.00     0.153 HD
ENDROOT
BRANCH   1  12
HETATM   12  C   UNK N   1      21.474  17.871   6.472  0.00  0.00     0.068 C 
BRANCH  12  13
HETATM   13  C   UNK N   1      21.170  16.583   7.187  0.00  0.00    -0.056 A 
HETATM   14  C   UNK N   1      21.814  15.404   6.790  0.00  0.00     0.010 A 
HETATM   15  C   UNK N   1      21.604  14.213   7.496  0.00  0.00     0.037 A 
HETATM   16  C   UNK N   1      20.758  14.200   8.611  0.00  0.00     0.065 A 
HETATM   17  C   UNK N   1      20.123  15.374   9.016  0.00  0.00     0.037 A 
HETATM   18  C   UNK N   1      20.338  16.560   8.313  0.00  0.00     0.010 A 
BRANCH  16  19
HETATM   19  O   UNK N   1      20.563  13.062   9.296  0.00  0.00    -0.361 OA
HETATM   20  H   UNK N   1      21.063  12.866  10.064  0.00  0.00     0.217 HD
ENDBRANCH  16  19
ENDBRANCH  12  13
ENDBRANCH   1  12
BRANCH   4  21
HETATM   21  O   UNK N   1      18.445  18.940   2.308  0.00  0.00    -0.358 OA
HETATM   22  H   UNK N   1      17.868  18.524   2.918  0.00  0.00     0.217 HD
ENDBRANCH   4  21
BRANCH  10  23
HETATM   23  O   UNK N   1      19.926  20.856   0.985  0.00  0.00    -0.358 OA
HETATM   24  H   UNK N   1      19.082  21.245   1.109  0.00  0.00     0.217 HD
ENDBRANCH  10  23
TORSDOF 5
ENDMDL
MODEL 4
REMARK VINA RESULT:      -6.6     12.654     15.914
REMARK  5 active torsions:
REMARK  status: ('A' for Active; 'I' for Inactive)
REMARK    1  A    between atoms: C_3  and  C_8 
REMARK    2  A    between atoms: C_6  and  O_7 
REMARK    3  A    between atoms: C_8  and  C_9 
REMARK    4  A    between atoms: C_12  and  O_13 
REMARK    5  A    between atoms: C_19  and  O_20 
ROOT
HETATM    1  C   UNK N   1      32.042  16.802   6.383  0.00  0.00     0.114 C 
HETATM    2  C   UNK N   1      30.786  17.160   7.179  0.00  0.00    -0.026 A 
HETATM    3  C   UNK N   1      30.762  16.991   8.566  0.00  0.00     0.049 A 
HETATM    4  C   UNK N   1      29.633  17.317   9.316  0.00  0.00     0.099 A 
HETATM    5  N   UNK N   1      31.912  17.135   4.955  0.00  0.00    -0.412 N 
HETATM    6  C   UNK N   1      30.591  16.808   4.430  0.00  0.00     0.119 C 
HETATM    7  C   UNK N   1      29.566  17.749   5.045  0.00  0.00     0.058 C 
HETATM    8  C   UNK N   1      29.621  17.632   6.534  0.00  0.00    -0.045 A 
HETATM    9  C   UNK N   1      28.485  17.959   7.284  0.00  0.00     0.047 A 
HETATM   10  C   UNK N   1      28.493  17.811   8.674  0.00  0.00     0.099 A 
HETATM   11  H   UNK N   1      32.659  17.547   4.397  0.00  0.00     0.153 HD
ENDROOT
BRANCH   1  12
HETATM   12  C   UNK N   1      33.296  17.542   6.877  0.00  0.00     0.068 C 
BRANCH  12  13
HETATM   13  C   UNK N   1      34.189  16.812   7.842  0.00  0.00    -0.056 A 
HETATM   14  C   UNK N   1      34.416  17.350   9.115  0.00  0.00     0.010 A 
HETATM   15  C   UNK N   1      35.179  16.643  10.054  0.00  0.00     0.037 A 
HETATM   16  C   UNK N   1      35.707  15.390   9.727  0.00  0.00     0.065 A 
HETATM   17  C   UNK N   1      35.474  14.845   8.463  0.00  0.00     0.037 A 
HETATM   18  C   UNK N   1      34.710  15.549   7.532  0.00  0.00     0.010 A 
BRANCH  16  19
HETATM   19  O   UNK N   1      36.430  14.706  10.628  0.00  0.00    -0.361 OA
HETATM   20  H   UNK N   1      36.079  14.494  11.470  0.00  0.00     0.217 HD
ENDBRANCH  16  19
ENDBRANCH  12  13
ENDBRANCH   1  12
BRANCH   4  21
HETATM   21  O   UNK N   1      29.653  17.158  10.649  0.00  0.00    -0.358 OA
HETATM   22  H   UNK N   1      30.412  17.404  11.141  0.00  0.00     0.217 HD
ENDBRANCH   4  21
BRANCH  10  23
HETATM   23  O   UNK N   1      27.401  18.136   9.388  0.00  0.00    -0.358 OA
HETATM   24  H   UNK N   1      27.124  19.029   9.449  0.00  0.00     0.217 HD
ENDBRANCH  10  23
TORSDOF 5
ENDMDL
MODEL 5
REMARK VINA RESULT:      -6.6      2.029      2.790
REMARK  5 active torsions:
REMARK  status: ('A' for Active; 'I' for Inactive)
REMARK    1  A    between atoms: C_3  and  C_8 
REMARK    2  A    between atoms: C_6  and  O_7 
REMARK    3  A    between atoms: C_8  and  C_9 
REMARK    4  A    between atoms: C_12  and  O_13 
REMARK    5  A    between atoms: C_19  and  O_20 
ROOT
HETATM    1  C   UNK N   1      26.436  23.666  -6.905  0.00  0.00     0.114 C 
HETATM    2  C   UNK N   1      27.523  22.592  -6.963  0.00  0.00    -0.026 A 
HETATM    3  C   UNK N   1      28.619  22.655  -6.099  0.00  0.00     0.049 A 
HETATM    4  C   UNK N   1      29.620  21.685  -6.126  0.00  0.00     0.099 A 
HETATM    5  N   UNK N   1      25.320  23.381  -7.822  0.00  0.00    -0.412 N 
HETATM    6  C   UNK N   1      25.778  22.869  -9.108  0.00  0.00     0.119 C 
HETATM    7  C   UNK N   1      26.358  21.476  -8.909  0.00  0.00     0.058 C 
HETATM    8  C   UNK N   1      27.463  21.541  -7.906  0.00  0.00    -0.045 A 
HETATM    9  C   UNK N   1      28.467  20.566  -7.937  0.00  0.00     0.047 A 
HETATM   10  C   UNK N   1      29.539  20.631  -7.043  0.00  0.00     0.099 A 
HETATM   11  H   UNK N   1      24.338  23.526  -7.585  0.00  0.00     0.153 HD
ENDROOT
BRANCH   1  12
HETATM   12  C   UNK N   1      25.809  23.809  -5.508  0.00  0.00     0.068 C 
BRANCH  12  13
HETATM   13  C   UNK N   1      25.735  25.195  -4.928  0.00  0.00    -0.056 A 
HETATM   14  C   UNK N   1      26.435  25.490  -3.752  0.00  0.00     0.010 A 
HETATM   15  C   UNK N   1      26.442  26.796  -3.243  0.00  0.00     0.037 A 
HETATM   16  C   UNK N   1      25.758  27.814  -3.917  0.00  0.00     0.065 A 
HETATM   17  C   UNK N   1      25.068  27.527  -5.095  0.00  0.00     0.037 A 
HETATM   18  C   UNK N   1      25.067  26.226  -5.601  0.00  0.00     0.010 A 
BRANCH  16  19
HETATM   19  O   UNK N   1      25.772  29.067  -3.437  0.00  0.00    -0.361 OA
HETATM   20  H   UNK N   1      25.120  29.362  -2.832  0.00  0.00     0.217 HD
ENDBRANCH  16  19
ENDBRANCH  12  13
ENDBRANCH   1  12
BRANCH   4  21
HETATM   21  O   UNK N   1      30.649  21.768  -5.268  0.00  0.00    -0.358 OA
HETATM   22  H   UNK N   1      31.501  22.007  -5.577  0.00  0.00     0.217 HD
ENDBRANCH   4  21
BRANCH  10  23
HETATM   23  O   UNK N   1      30.495  19.686  -7.073  0.00  0.00    -0.358 OA
HETATM   24  H   UNK N   1      30.396  18.898  -6.575  0.00  0.00     0.217 HD
ENDBRANCH  10  23
TORSDOF 5
ENDMDL
MODEL 6
REMARK VINA RESULT:      -6.5     21.727     24.669
REMARK  5 active torsions:
REMARK  status: ('A' for Active; 'I' for Inactive)
REMARK    1  A    between atoms: C_3  and  C_8 
REMARK    2  A    between atoms: C_6  and  O_7 
REMARK    3  A    between atoms: C_8  and  C_9 
REMARK    4  A    between atoms: C_12  and  O_13 
REMARK    5  A    between atoms: C_19  and  O_20 
ROOT
HETATM    1  C   UNK N   1      36.108  11.482  15.335  0.00  0.00     0.114 C 
HETATM    2  C   UNK N   1      35.748  11.950  16.745  0.00  0.00    -0.026 A 
HETATM    3  C   UNK N   1      35.647  13.315  17.027  0.00  0.00     0.049 A 
HETATM    4  C   UNK N   1      35.311  13.768  18.303  0.00  0.00     0.099 A 
HETATM    5  N   UNK N   1      36.076  10.016  15.207  0.00  0.00    -0.412 N 
HETATM    6  C   UNK N   1      36.646   9.347  16.371  0.00  0.00     0.119 C 
HETATM    7  C   UNK N   1      35.726   9.559  17.565  0.00  0.00     0.058 C 
HETATM    8  C   UNK N   1      35.545  11.024  17.794  0.00  0.00    -0.045 A 
HETATM    9  C   UNK N   1      35.210  11.477  19.076  0.00  0.00     0.047 A 
HETATM   10  C   UNK N   1      35.084  12.845  19.329  0.00  0.00     0.099 A 
HETATM   11  H   UNK N   1      35.698   9.523  14.398  0.00  0.00     0.153 HD
ENDROOT
BRANCH   1  12
HETATM   12  C   UNK N   1      35.149  12.020  14.261  0.00  0.00     0.068 C 
BRANCH  12  13
HETATM   13  C   UNK N   1      35.761  12.757  13.101  0.00  0.00    -0.056 A 
HETATM   14  C   UNK N   1      35.264  14.017  12.744  0.00  0.00     0.010 A 
HETATM   15  C   UNK N   1      35.875  14.752  11.719  0.00  0.00     0.037 A 
HETATM   16  C   UNK N   1      36.992  14.233  11.055  0.00  0.00     0.065 A 
HETATM   17  C   UNK N   1      37.496  12.983  11.414  0.00  0.00     0.037 A 
HETATM   18  C   UNK N   1      36.889  12.256  12.440  0.00  0.00     0.010 A 
BRANCH  16  19
HETATM   19  O   UNK N   1      37.585  14.939  10.079  0.00  0.00    -0.361 OA
HETATM   20  H   UNK N   1      38.395  15.386  10.228  0.00  0.00     0.217 HD
ENDBRANCH  16  19
ENDBRANCH  12  13
ENDBRANCH   1  12
BRANCH   4  21
HETATM   21  O   UNK N   1      35.205  15.087  18.533  0.00  0.00    -0.358 OA
HETATM   22  H   UNK N   1      35.974  15.603  18.675  0.00  0.00     0.217 HD
ENDBRANCH   4  21
BRANCH  10  23
HETATM   23  O   UNK N   1      34.753  13.270  20.561  0.00  0.00    -0.358 OA
HETATM   24  H   UNK N   1      34.918  14.158  20.814  0.00  0.00     0.217 HD
ENDBRANCH  10  23
TORSDOF 5
ENDMDL
MODEL 7
REMARK VINA RESULT:      -6.3     11.353     13.015
REMARK  5 active torsions:
REMARK  status: ('A' for Active; 'I' for Inactive)
REMARK    1  A    between atoms: C_3  and  C_8 
REMARK    2  A    between atoms: C_6  and  O_7 
REMARK    3  A    between atoms: C_8  and  C_9 
REMARK    4  A    between atoms: C_12  and  O_13 
REMARK    5  A    between atoms: C_19  and  O_20 
ROOT
HETATM    1  C   UNK N   1      20.958  17.593   5.031  0.00  0.00     0.114 C 
HETATM    2  C   UNK N   1      20.871  18.355   3.708  0.00  0.00    -0.026 A 
HETATM    3  C   UNK N   1      21.146  19.724   3.667  0.00  0.00     0.049 A 
HETATM    4  C   UNK N   1      21.082  20.440   2.473  0.00  0.00     0.099 A 
HETATM    5  N   UNK N   1      20.727  16.149   4.860  0.00  0.00    -0.412 N 
HETATM    6  C   UNK N   1      19.647  15.870   3.921  0.00  0.00     0.119 C 
HETATM    7  C   UNK N   1      20.093  16.264   2.521  0.00  0.00     0.058 C 
HETATM    8  C   UNK N   1      20.480  17.706   2.515  0.00  0.00    -0.045 A 
HETATM    9  C   UNK N   1      20.414  18.424   1.314  0.00  0.00     0.047 A 
HETATM   10  C   UNK N   1      20.723  19.786   1.290  0.00  0.00     0.099 A 
HETATM   11  H   UNK N   1      21.261  15.427   5.343  0.00  0.00     0.153 HD
ENDROOT
BRANCH   1  12
HETATM   12  C   UNK N   1      22.332  17.723   5.709  0.00  0.00     0.068 C 
BRANCH  12  13
HETATM   13  C   UNK N   1      23.541  17.380   4.882  0.00  0.00    -0.056 A 
HETATM   14  C   UNK N   1      24.483  18.375   4.590  0.00  0.00     0.010 A 
HETATM   15  C   UNK N   1      25.654  18.055   3.891  0.00  0.00     0.037 A 
HETATM   16  C   UNK N   1      25.893  16.735   3.492  0.00  0.00     0.065 A 
HETATM   17  C   UNK N   1      24.962  15.739   3.789  0.00  0.00     0.037 A 
HETATM   18  C   UNK N   1      23.799  16.061   4.490  0.00  0.00     0.010 A 
BRANCH  16  19
HETATM   19  O   UNK N   1      27.019  16.423   2.831  0.00  0.00    -0.361 OA
HETATM   20  H   UNK N   1      27.083  15.636   2.327  0.00  0.00     0.217 HD
ENDBRANCH  16  19
ENDBRANCH  12  13
ENDBRANCH   1  12
BRANCH   4  21
HETATM   21  O   UNK N   1      21.371  21.752   2.468  0.00  0.00    -0.358 OA
HETATM   22  H   UNK N   1      22.242  22.042   2.659  0.00  0.00     0.217 HD
ENDBRANCH   4  21
BRANCH  10  23
HETATM   23  O   UNK N   1      20.665  20.466   0.131  0.00  0.00    -0.358 OA
HETATM   24  H   UNK N   1      20.403  21.366   0.124  0.00  0.00     0.217 HD
ENDBRANCH  10  23
TORSDOF 5
ENDMDL
MODEL 8
REMARK VINA RESULT:      -6.3     11.435     14.169
REMARK  5 active torsions:
REMARK  status: ('A' for Active; 'I' for Inactive)
REMARK    1  A    between atoms: C_3  and  C_8 
REMARK    2  A    between atoms: C_6  and  O_7 
REMARK    3  A    between atoms: C_8  and  C_9 
REMARK    4  A    between atoms: C_12  and  O_13 
REMARK    5  A    between atoms: C_19  and  O_20 
ROOT
HETATM    1  C   UNK N   1      29.653  15.620   5.716  0.00  0.00     0.114 C 
HETATM    2  C   UNK N   1      28.970  16.852   6.311  0.00  0.00    -0.026 A 
HETATM    3  C   UNK N   1      28.523  16.836   7.634  0.00  0.00     0.049 A 
HETATM    4  C   UNK N   1      27.905  17.948   8.204  0.00  0.00     0.099 A 
HETATM    5  N   UNK N   1      30.137  15.856   4.345  0.00  0.00    -0.412 N 
HETATM    6  C   UNK N   1      29.188  16.627   3.550  0.00  0.00     0.119 C 
HETATM    7  C   UNK N   1      29.127  18.048   4.090  0.00  0.00     0.058 C 
HETATM    8  C   UNK N   1      28.746  18.011   5.534  0.00  0.00    -0.045 A 
HETATM    9  C   UNK N   1      28.124  19.128   6.102  0.00  0.00     0.047 A 
HETATM   10  C   UNK N   1      27.712  19.103   7.437  0.00  0.00     0.099 A 
HETATM   11  H   UNK N   1      31.033  15.520   3.993  0.00  0.00     0.153 HD
ENDROOT
BRANCH   1  12
HETATM   12  C   UNK N   1      30.879  15.165   6.524  0.00  0.00     0.068 C 
BRANCH  12  13
HETATM   13  C   UNK N   1      31.911  16.209   6.853  0.00  0.00    -0.056 A 
HETATM   14  C   UNK N   1      32.043  16.656   8.174  0.00  0.00     0.010 A 
HETATM   15  C   UNK N   1      33.052  17.568   8.513  0.00  0.00     0.037 A 
HETATM   16  C   UNK N   1      33.940  18.025   7.533  0.00  0.00     0.065 A 
HETATM   17  C   UNK N   1      33.818  17.575   6.218  0.00  0.00     0.037 A 
HETATM   18  C   UNK N   1      32.815  16.663   5.885  0.00  0.00     0.010 A 
BRANCH  16  19
HETATM   19  O   UNK N   1      34.913  18.891   7.856  0.00  0.00    -0.361 OA
HETATM   20  H   UNK N   1      35.109  19.089   8.751  0.00  0.00     0.217 HD
ENDBRANCH  16  19
ENDBRANCH  12  13
ENDBRANCH   1  12
BRANCH   4  21
HETATM   21  O   UNK N   1      27.504  17.903   9.485  0.00  0.00    -0.358 OA
HETATM   22  H   UNK N   1      27.813  18.542  10.097  0.00  0.00     0.217 HD
ENDBRANCH   4  21
BRANCH  10  23
HETATM   23  O   UNK N   1      27.123  20.183   7.978  0.00  0.00    -0.358 OA
HETATM   24  H   UNK N   1      27.216  21.024   7.574  0.00  0.00     0.217 HD
ENDBRANCH  10  23
TORSDOF 5
ENDMDL
MODEL 9
REMARK VINA RESULT:      -6.2     13.976     14.693
REMARK  5 active torsions:
REMARK  status: ('A' for Active; 'I' for Inactive)
REMARK    1  A    between atoms: C_3  and  C_8 
REMARK    2  A    between atoms: C_6  and  O_7 
REMARK    3  A    between atoms: C_8  and  C_9 
REMARK    4  A    between atoms: C_12  and  O_13 
REMARK    5  A    between atoms: C_19  and  O_20 
ROOT
HETATM    1  C   UNK N   1      22.610  16.530   5.648  0.00  0.00     0.114 C 
HETATM    2  C   UNK N   1      21.783  15.900   6.770  0.00  0.00    -0.026 A 
HETATM    3  C   UNK N   1      20.550  16.451   7.127  0.00  0.00     0.049 A 
HETATM    4  C   UNK N   1      19.773  15.891   8.141  0.00  0.00     0.099 A 
HETATM    5  N   UNK N   1      23.828  15.759   5.352  0.00  0.00    -0.412 N 
HETATM    6  C   UNK N   1      24.481  15.271   6.561  0.00  0.00     0.119 C 
HETATM    7  C   UNK N   1      23.606  14.203   7.201  0.00  0.00     0.058 C 
HETATM    8  C   UNK N   1      22.257  14.778   7.486  0.00  0.00    -0.045 A 
HETATM    9  C   UNK N   1      21.480  14.215   8.505  0.00  0.00     0.047 A 
HETATM   10  C   UNK N   1      20.235  14.763   8.827  0.00  0.00     0.099 A 
HETATM   11  H   UNK N   1      24.176  15.585   4.409  0.00  0.00     0.153 HD
ENDROOT
BRANCH   1  12
HETATM   12  C   UNK N   1      21.841  16.631   4.321  0.00  0.00     0.068 C 
BRANCH  12  13
HETATM   13  C   UNK N   1      21.598  18.011   3.772  0.00  0.00    -0.056 A 
HETATM   14  C   UNK N   1      22.674  18.897   3.633  0.00  0.00     0.010 A 
HETATM   15  C   UNK N   1      22.479  20.156   3.048  0.00  0.00     0.037 A 
HETATM   16  C   UNK N   1      21.211  20.527   2.589  0.00  0.00     0.065 A 
HETATM   17  C   UNK N   1      20.139  19.643   2.716  0.00  0.00     0.037 A 
HETATM   18  C   UNK N   1      20.337  18.388   3.294  0.00  0.00     0.010 A 
BRANCH  16  19
HETATM   19  O   UNK N   1      21.024  21.728   2.019  0.00  0.00    -0.361 OA
HETATM   20  H   UNK N   1      21.341  22.511   2.424  0.00  0.00     0.217 HD
ENDBRANCH  16  19
ENDBRANCH  12  13
ENDBRANCH   1  12
BRANCH   4  21
HETATM   21  O   UNK N   1      18.584  16.438   8.445  0.00  0.00    -0.358 OA
HETATM   22  H   UNK N   1      18.425  17.344   8.270  0.00  0.00     0.217 HD
ENDBRANCH   4  21
BRANCH  10  23
HETATM   23  O   UNK N   1      19.491  14.211   9.800  0.00  0.00    -0.358 OA
HETATM   24  H   UNK N   1      19.046  13.400   9.653  0.00  0.00     0.217 HD
ENDBRANCH  10  23
TORSDOF 5
ENDMDL
