MODEL 1
REMARK VINA RESULT:      -7.0      0.000      0.000
REMARK  2 active torsions:
REMARK  status: ('A' for Active; 'I' for Inactive)
REMARK    1  A    between atoms: C_3  and  C_2 
REMARK    2  A    between atoms: C_3  and  O_22 
ROOT
HETATM    1  C   UNK N   1      32.442  15.675   8.605  0.00  0.00     0.065 C 
HETATM    2  C   UNK N   1      31.893  14.661   7.630  0.00  0.00     0.039 C 
HETATM    3  C   UNK N   1      31.859  15.441   6.330  0.00  0.00     0.009 C 
HETATM    4  C   UNK N   1      31.257  16.785   6.721  0.00  0.00     0.001 C 
HETATM    5  C   UNK N   1      31.665  16.976   8.220  0.00  0.00    -0.009 C 
HETATM    6  C   UNK N   1      30.416  17.156   9.120  0.00  0.00     0.013 C 
HETATM    7  C   UNK N   1      29.484  18.222   8.546  0.00  0.00     0.006 C 
HETATM    8  C   UNK N   1      28.900  17.783   7.194  0.00  0.00    -0.002 C 
HETATM    9  C   UNK N   1      29.728  16.641   6.557  0.00  0.00    -0.005 C 
HETATM   10  C   UNK N   1      29.258  16.280   5.141  0.00  0.00     0.010 C 
HETATM   11  C   UNK N   1      29.210  17.502   4.239  0.00  0.00     0.035 C 
HETATM   12  C   UNK N   1      28.316  18.513   4.873  0.00  0.00    -0.072 C 
HETATM   13  C   UNK N   1      27.224  18.930   4.213  0.00  0.00     0.053 C 
HETATM   14  C   UNK N   1      26.370  19.978   4.787  0.00  0.00     0.149 C 
HETATM   15  O   UNK N   1      25.255  20.184   4.340  0.00  0.00    -0.293 OA
HETATM   16  C   UNK N   1      26.904  20.803   5.913  0.00  0.00     0.084 C 
HETATM   17  C   UNK N   1      27.561  19.867   6.914  0.00  0.00     0.017 C 
HETATM   18  C   UNK N   1      28.669  18.998   6.275  0.00  0.00     0.019 C 
HETATM   19  C   UNK N   1      32.514  18.236   8.371  0.00  0.00     0.019 C 
ENDROOT
BRANCH   1  20
HETATM   20  C   UNK N   1      33.966  15.712   8.365  0.00  0.00     0.034 C 
HETATM   21  C   UNK N   1      34.773  15.544   9.644  0.00  0.00     0.008 C 
ENDBRANCH   1  20
BRANCH   1  22
HETATM   22  O   UNK N   1      32.194  15.262   9.919  0.00  0.00    -0.389 OA
HETATM   23  H   UNK N   1      32.420  15.599  10.799  0.00  0.00     0.210 HD
ENDBRANCH   1  22
TORSDOF 2
ENDMDL
MODEL 2
REMARK VINA RESULT:      -7.0     11.459     14.828
REMARK  2 active torsions:
REMARK  status: ('A' for Active; 'I' for Inactive)
REMARK    1  A    between atoms: C_3  and  C_2 
REMARK    2  A    between atoms: C_3  and  O_22 
ROOT
HETATM    1  C   UNK N   1      26.370  24.928  -5.693  0.00  0.00     0.065 C 
HETATM    2  C   UNK N   1      26.257  24.648  -4.214  0.00  0.00     0.039 C 
HETATM    3  C   UNK N   1      27.632  25.033  -3.701  0.00  0.00     0.009 C 
HETATM    4  C   UNK N   1      28.590  24.401  -4.702  0.00  0.00     0.001 C 
HETATM    5  C   UNK N   1      27.783  24.355  -6.043  0.00  0.00    -0.009 C 
HETATM    6  C   UNK N   1      27.670  22.906  -6.578  0.00  0.00     0.013 C 
HETATM    7  C   UNK N   1      29.041  22.231  -6.607  0.00  0.00     0.006 C 
HETATM    8  C   UNK N   1      29.606  22.055  -5.189  0.00  0.00    -0.002 C 
HETATM    9  C   UNK N   1      28.900  22.984  -4.172  0.00  0.00    -0.005 C 
HETATM   10  C   UNK N   1      29.539  22.939  -2.777  0.00  0.00     0.010 C 
HETATM   11  C   UNK N   1      31.034  23.213  -2.837  0.00  0.00     0.035 C 
HETATM   12  C   UNK N   1      31.652  22.215  -3.757  0.00  0.00    -0.072 C 
HETATM   13  C   UNK N   1      32.597  21.386  -3.288  0.00  0.00     0.053 C 
HETATM   14  C   UNK N   1      33.271  20.446  -4.193  0.00  0.00     0.149 C 
HETATM   15  O   UNK N   1      33.932  19.523  -3.749  0.00  0.00    -0.293 OA
HETATM   16  C   UNK N   1      33.151  20.658  -5.667  0.00  0.00     0.084 C 
HETATM   17  C   UNK N   1      31.694  20.949  -5.985  0.00  0.00     0.017 C 
HETATM   18  C   UNK N   1      31.143  22.158  -5.193  0.00  0.00     0.019 C 
HETATM   19  C   UNK N   1      28.502  25.175  -7.111  0.00  0.00     0.019 C 
ENDROOT
BRANCH   1  20
HETATM   20  C   UNK N   1      26.211  26.454  -5.850  0.00  0.00     0.034 C 
HETATM   21  C   UNK N   1      24.773  26.922  -5.677  0.00  0.00     0.008 C 
ENDBRANCH   1  20
BRANCH   1  22
HETATM   22  O   UNK N   1      25.337  24.285  -6.384  0.00  0.00    -0.389 OA
HETATM   23  H   UNK N   1      25.277  23.758  -7.195  0.00  0.00     0.210 HD
ENDBRANCH   1  22
TORSDOF 2
ENDMDL
MODEL 3
REMARK VINA RESULT:      -7.0      9.508     13.420
REMARK  2 active torsions:
REMARK  status: ('A' for Active; 'I' for Inactive)
REMARK    1  A    between atoms: C_3  and  C_2 
REMARK    2  A    between atoms: C_3  and  O_22 
ROOT
HETATM    1  C   UNK N   1      36.033  12.238  12.490  0.00  0.00     0.065 C 
HETATM    2  C   UNK N   1      35.335  13.485  12.978  0.00  0.00     0.039 C 
HETATM    3  C   UNK N   1      36.093  13.808  14.251  0.00  0.00     0.009 C 
HETATM    4  C   UNK N   1      36.214  12.466  14.960  0.00  0.00     0.001 C 
HETATM    5  C   UNK N   1      36.213  11.410  13.804  0.00  0.00    -0.009 C 
HETATM    6  C   UNK N   1      35.056  10.395  13.976  0.00  0.00     0.013 C 
HETATM    7  C   UNK N   1      35.041   9.825  15.393  0.00  0.00     0.006 C 
HETATM    8  C   UNK N   1      34.728  10.915  16.430  0.00  0.00    -0.002 C 
HETATM    9  C   UNK N   1      34.964  12.333  15.858  0.00  0.00    -0.005 C 
HETATM   10  C   UNK N   1      34.802  13.438  16.911  0.00  0.00     0.010 C 
HETATM   11  C   UNK N   1      35.671  13.178  18.132  0.00  0.00     0.035 C 
HETATM   12  C   UNK N   1      35.313  11.839  18.681  0.00  0.00    -0.072 C 
HETATM   13  C   UNK N   1      34.851  11.746  19.938  0.00  0.00     0.053 C 
HETATM   14  C   UNK N   1      34.562  10.430  20.523  0.00  0.00     0.149 C 
HETATM   15  O   UNK N   1      33.909  10.337  21.548  0.00  0.00    -0.293 OA
HETATM   16  C   UNK N   1      35.104   9.211  19.851  0.00  0.00     0.084 C 
HETATM   17  C   UNK N   1      34.846   9.340  18.359  0.00  0.00     0.017 C 
HETATM   18  C   UNK N   1      35.451  10.631  17.760  0.00  0.00     0.019 C 
HETATM   19  C   UNK N   1      37.516  10.615  13.825  0.00  0.00     0.019 C 
ENDROOT
BRANCH   1  20
HETATM   20  C   UNK N   1      37.337  12.717  11.819  0.00  0.00     0.034 C 
HETATM   21  C   UNK N   1      37.091  13.611  10.612  0.00  0.00     0.008 C 
ENDBRANCH   1  20
BRANCH   1  22
HETATM   22  O   UNK N   1      35.241  11.585  11.539  0.00  0.00    -0.389 OA
HETATM   23  H   UNK N   1      35.260  11.494  10.575  0.00  0.00     0.210 HD
ENDBRANCH   1  22
TORSDOF 2
ENDMDL
MODEL 4
REMARK VINA RESULT:      -6.9     13.457     15.989
REMARK  2 active torsions:
REMARK  status: ('A' for Active; 'I' for Inactive)
REMARK    1  A    between atoms: C_3  and  C_2 
REMARK    2  A    between atoms: C_3  and  O_22 
ROOT
HETATM    1  C   UNK N   1      26.292  27.483  -4.935  0.00  0.00     0.065 C 
HETATM    2  C   UNK N   1      26.898  26.906  -3.679  0.00  0.00     0.039 C 
HETATM    3  C   UNK N   1      28.257  26.433  -4.159  0.00  0.00     0.009 C 
HETATM    4  C   UNK N   1      27.958  25.716  -5.469  0.00  0.00     0.001 C 
HETATM    5  C   UNK N   1      26.675  26.423  -6.020  0.00  0.00    -0.009 C 
HETATM    6  C   UNK N   1      25.522  25.409  -6.227  0.00  0.00     0.013 C 
HETATM    7  C   UNK N   1      26.004  24.197  -7.024  0.00  0.00     0.006 C 
HETATM    8  C   UNK N   1      27.059  23.399  -6.242  0.00  0.00    -0.002 C 
HETATM    9  C   UNK N   1      27.686  24.239  -5.104  0.00  0.00    -0.005 C 
HETATM   10  C   UNK N   1      28.845  23.522  -4.398  0.00  0.00     0.010 C 
HETATM   11  C   UNK N   1      29.898  23.053  -5.389  0.00  0.00     0.035 C 
HETATM   12  C   UNK N   1      29.234  22.170  -6.390  0.00  0.00    -0.072 C 
HETATM   13  C   UNK N   1      29.644  20.899  -6.521  0.00  0.00     0.053 C 
HETATM   14  C   UNK N   1      29.054  20.034  -7.551  0.00  0.00     0.149 C 
HETATM   15  O   UNK N   1      29.220  18.827  -7.517  0.00  0.00    -0.293 OA
HETATM   16  C   UNK N   1      28.267  20.665  -8.653  0.00  0.00     0.084 C 
HETATM   17  C   UNK N   1      27.330  21.690  -8.037  0.00  0.00     0.017 C 
HETATM   18  C   UNK N   1      28.079  22.752  -7.198  0.00  0.00     0.019 C 
HETATM   19  C   UNK N   1      26.971  27.052  -7.378  0.00  0.00     0.019 C 
ENDROOT
BRANCH   1  20
HETATM   20  C   UNK N   1      26.927  28.878  -5.111  0.00  0.00     0.034 C 
HETATM   21  C   UNK N   1      26.535  29.853  -4.010  0.00  0.00     0.008 C 
ENDBRANCH   1  20
BRANCH   1  22
HETATM   22  O   UNK N   1      24.908  27.625  -4.779  0.00  0.00    -0.389 OA
HETATM   23  H   UNK N   1      24.231  28.211  -5.151  0.00  0.00     0.210 HD
ENDBRANCH   1  22
TORSDOF 2
ENDMDL
MODEL 5
REMARK VINA RESULT:      -6.9      2.050      3.285
REMARK  2 active torsions:
REMARK  status: ('A' for Active; 'I' for Inactive)
REMARK    1  A    between atoms: C_3  and  C_2 
REMARK    2  A    between atoms: C_3  and  O_22 
ROOT
HETATM    1  C   UNK N   1      33.538  17.189   7.394  0.00  0.00     0.065 C 
HETATM    2  C   UNK N   1      32.702  18.082   8.278  0.00  0.00     0.039 C 
HETATM    3  C   UNK N   1      31.491  17.217   8.567  0.00  0.00     0.009 C 
HETATM    4  C   UNK N   1      31.121  16.634   7.209  0.00  0.00     0.001 C 
HETATM    5  C   UNK N   1      32.475  16.573   6.426  0.00  0.00    -0.009 C 
HETATM    6  C   UNK N   1      32.396  17.385   5.109  0.00  0.00     0.013 C 
HETATM    7  C   UNK N   1      31.151  17.002   4.310  0.00  0.00     0.006 C 
HETATM    8  C   UNK N   1      29.867  17.391   5.058  0.00  0.00    -0.002 C 
HETATM    9  C   UNK N   1      30.130  17.629   6.564  0.00  0.00    -0.005 C 
HETATM   10  C   UNK N   1      28.845  17.875   7.365  0.00  0.00     0.010 C 
HETATM   11  C   UNK N   1      27.828  16.766   7.147  0.00  0.00     0.035 C 
HETATM   12  C   UNK N   1      27.554  16.669   5.684  0.00  0.00    -0.072 C 
HETATM   13  C   UNK N   1      26.303  16.859   5.236  0.00  0.00     0.053 C 
HETATM   14  C   UNK N   1      25.997  16.696   3.809  0.00  0.00     0.149 C 
HETATM   15  O   UNK N   1      24.948  17.110   3.348  0.00  0.00    -0.293 OA
HETATM   16  C   UNK N   1      26.986  15.991   2.939  0.00  0.00     0.084 C 
HETATM   17  C   UNK N   1      28.369  16.535   3.258  0.00  0.00     0.017 C 
HETATM   18  C   UNK N   1      28.732  16.394   4.755  0.00  0.00     0.019 C 
HETATM   19  C   UNK N   1      32.792  15.129   6.047  0.00  0.00     0.019 C 
ENDROOT
BRANCH   1  20
HETATM   20  C   UNK N   1      34.238  16.191   8.339  0.00  0.00     0.034 C 
HETATM   21  C   UNK N   1      34.888  16.865   9.539  0.00  0.00     0.008 C 
ENDBRANCH   1  20
BRANCH   1  22
HETATM   22  O   UNK N   1      34.508  17.946   6.725  0.00  0.00    -0.389 OA
HETATM   23  H   UNK N   1      34.611  18.882   6.498  0.00  0.00     0.210 HD
ENDBRANCH   1  22
TORSDOF 2
ENDMDL
MODEL 6
REMARK VINA RESULT:      -6.8     11.627     13.580
REMARK  2 active torsions:
REMARK  status: ('A' for Active; 'I' for Inactive)
REMARK    1  A    between atoms: C_3  and  C_2 
REMARK    2  A    between atoms: C_3  and  O_22 
ROOT
HETATM    1  C   UNK N   1      31.249  21.407  -4.451  0.00  0.00     0.065 C 
HETATM    2  C   UNK N   1      30.490  20.836  -5.625  0.00  0.00     0.039 C 
HETATM    3  C   UNK N   1      30.355  22.036  -6.543  0.00  0.00     0.009 C 
HETATM    4  C   UNK N   1      29.929  23.165  -5.614  0.00  0.00     0.001 C 
HETATM    5  C   UNK N   1      30.545  22.785  -4.226  0.00  0.00    -0.009 C 
HETATM    6  C   UNK N   1      29.445  22.668  -3.140  0.00  0.00     0.013 C 
HETATM    7  C   UNK N   1      28.543  23.901  -3.149  0.00  0.00     0.006 C 
HETATM    8  C   UNK N   1      27.751  24.004  -4.461  0.00  0.00    -0.002 C 
HETATM    9  C   UNK N   1      28.385  23.143  -5.581  0.00  0.00    -0.005 C 
HETATM   10  C   UNK N   1      27.705  23.338  -6.943  0.00  0.00     0.010 C 
HETATM   11  C   UNK N   1      27.647  24.806  -7.335  0.00  0.00     0.035 C 
HETATM   12  C   UNK N   1      26.935  25.547  -6.254  0.00  0.00    -0.072 C 
HETATM   13  C   UNK N   1      25.807  26.213  -6.547  0.00  0.00     0.053 C 
HETATM   14  C   UNK N   1      25.130  27.010  -5.515  0.00  0.00     0.149 C 
HETATM   15  O   UNK N   1      23.988  27.402  -5.683  0.00  0.00    -0.293 OA
HETATM   16  C   UNK N   1      25.877  27.350  -4.267  0.00  0.00     0.084 C 
HETATM   17  C   UNK N   1      26.575  26.092  -3.776  0.00  0.00     0.017 C 
HETATM   18  C   UNK N   1      27.509  25.477  -4.843  0.00  0.00     0.019 C 
HETATM   19  C   UNK N   1      31.513  23.873  -3.770  0.00  0.00     0.019 C 
ENDROOT
BRANCH   1  20
HETATM   20  C   UNK N   1      32.725  21.476  -4.893  0.00  0.00     0.034 C 
HETATM   21  C   UNK N   1      33.680  20.867  -3.876  0.00  0.00     0.008 C 
ENDBRANCH   1  20
BRANCH   1  22
HETATM   22  O   UNK N   1      31.140  20.553  -3.347  0.00  0.00    -0.389 OA
HETATM   23  H   UNK N   1      31.604  19.758  -3.046  0.00  0.00     0.210 HD
ENDBRANCH   1  22
TORSDOF 2
ENDMDL
MODEL 7
REMARK VINA RESULT:      -6.7     15.632     17.114
REMARK  2 active torsions:
REMARK  status: ('A' for Active; 'I' for Inactive)
REMARK    1  A    between atoms: C_3  and  C_2 
REMARK    2  A    between atoms: C_3  and  O_22 
ROOT
HETATM    1  C   UNK N   1      27.769  29.728  -3.591  0.00  0.00     0.065 C 
HETATM    2  C   UNK N   1      26.307  29.428  -3.360  0.00  0.00     0.039 C 
HETATM    3  C   UNK N   1      26.278  27.911  -3.374  0.00  0.00     0.009 C 
HETATM    4  C   UNK N   1      27.131  27.537  -4.579  0.00  0.00     0.001 C 
HETATM    5  C   UNK N   1      28.153  28.714  -4.718  0.00  0.00    -0.009 C 
HETATM    6  C   UNK N   1      28.051  29.380  -6.114  0.00  0.00     0.013 C 
HETATM    7  C   UNK N   1      28.098  28.328  -7.221  0.00  0.00     0.006 C 
HETATM    8  C   UNK N   1      26.871  27.405  -7.165  0.00  0.00    -0.002 C 
HETATM    9  C   UNK N   1      26.170  27.465  -5.787  0.00  0.00    -0.005 C 
HETATM   10  C   UNK N   1      25.030  26.447  -5.649  0.00  0.00     0.010 C 
HETATM   11  C   UNK N   1      25.497  25.037  -5.975  0.00  0.00     0.035 C 
HETATM   12  C   UNK N   1      26.066  25.043  -7.353  0.00  0.00    -0.072 C 
HETATM   13  C   UNK N   1      25.518  24.257  -8.293  0.00  0.00     0.053 C 
HETATM   14  C   UNK N   1      26.107  24.192  -9.637  0.00  0.00     0.149 C 
HETATM   15  O   UNK N   1      25.488  23.698 -10.563  0.00  0.00    -0.293 OA
HETATM   16  C   UNK N   1      27.490  24.720  -9.840  0.00  0.00     0.084 C 
HETATM   17  C   UNK N   1      27.589  26.066  -9.142  0.00  0.00     0.017 C 
HETATM   18  C   UNK N   1      27.231  25.984  -7.640  0.00  0.00     0.019 C 
HETATM   19  C   UNK N   1      29.577  28.187  -4.574  0.00  0.00     0.019 C 
ENDROOT
BRANCH   1  20
HETATM   20  C   UNK N   1      28.467  29.512  -2.233  0.00  0.00     0.034 C 
HETATM   21  C   UNK N   1      28.242  30.660  -1.260  0.00  0.00     0.008 C 
ENDBRANCH   1  20
BRANCH   1  22
HETATM   22  O   UNK N   1      27.929  31.062  -3.983  0.00  0.00    -0.389 OA
HETATM   23  H   UNK N   1      28.272  31.865  -3.562  0.00  0.00     0.210 HD
ENDBRANCH   1  22
TORSDOF 2
ENDMDL
MODEL 8
REMARK VINA RESULT:      -6.6      7.920     12.579
REMARK  2 active torsions:
REMARK  status: ('A' for Active; 'I' for Inactive)
REMARK    1  A    between atoms: C_3  and  C_2 
REMARK    2  A    between atoms: C_3  and  O_22 
ROOT
HETATM    1  C   UNK N   1      36.966  13.671  10.893  0.00  0.00     0.065 C 
HETATM    2  C   UNK N   1      38.242  12.871  11.007  0.00  0.00     0.039 C 
HETATM    3  C   UNK N   1      37.739  11.517  11.469  0.00  0.00     0.009 C 
HETATM    4  C   UNK N   1      36.741  11.848  12.570  0.00  0.00     0.001 C 
HETATM    5  C   UNK N   1      36.188  13.262  12.186  0.00  0.00    -0.009 C 
HETATM    6  C   UNK N   1      36.435  14.286  13.323  0.00  0.00     0.013 C 
HETATM    7  C   UNK N   1      35.960  13.731  14.664  0.00  0.00     0.006 C 
HETATM    8  C   UNK N   1      36.788  12.508  15.088  0.00  0.00    -0.002 C 
HETATM    9  C   UNK N   1      37.544  11.886  13.889  0.00  0.00    -0.005 C 
HETATM   10  C   UNK N   1      38.263  10.578  14.248  0.00  0.00     0.010 C 
HETATM   11  C   UNK N   1      37.315   9.577  14.888  0.00  0.00     0.035 C 
HETATM   12  C   UNK N   1      36.705  10.216  16.089  0.00  0.00    -0.072 C 
HETATM   13  C   UNK N   1      36.889   9.657  17.296  0.00  0.00     0.053 C 
HETATM   14  C   UNK N   1      36.237  10.228  18.481  0.00  0.00     0.149 C 
HETATM   15  O   UNK N   1      36.591   9.903  19.601  0.00  0.00    -0.293 OA
HETATM   16  C   UNK N   1      35.117  11.197  18.287  0.00  0.00     0.084 C 
HETATM   17  C   UNK N   1      35.535  12.195  17.220  0.00  0.00     0.017 C 
HETATM   18  C   UNK N   1      35.927  11.512  15.889  0.00  0.00     0.019 C 
HETATM   19  C   UNK N   1      34.680  13.189  11.966  0.00  0.00     0.019 C 
ENDROOT
BRANCH   1  20
HETATM   20  C   UNK N   1      36.317  13.245   9.560  0.00  0.00     0.034 C 
HETATM   21  C   UNK N   1      35.932  14.428   8.682  0.00  0.00     0.008 C 
ENDBRANCH   1  20
BRANCH   1  22
HETATM   22  O   UNK N   1      37.260  15.039  10.845  0.00  0.00    -0.389 OA
HETATM   23  H   UNK N   1      36.754  15.855  10.978  0.00  0.00     0.210 HD
ENDBRANCH   1  22
TORSDOF 2
ENDMDL
MODEL 9
REMARK VINA RESULT:      -6.6      4.055      8.678
REMARK  2 active torsions:
REMARK  status: ('A' for Active; 'I' for Inactive)
REMARK    1  A    between atoms: C_3  and  C_2 
REMARK    2  A    between atoms: C_3  and  O_22 
ROOT
HETATM    1  C   UNK N   1      33.697  16.744   6.372  0.00  0.00     0.065 C 
HETATM    2  C   UNK N   1      34.609  15.708   5.762  0.00  0.00     0.039 C 
HETATM    3  C   UNK N   1      34.153  14.430   6.440  0.00  0.00     0.009 C 
HETATM    4  C   UNK N   1      34.024  14.816   7.907  0.00  0.00     0.001 C 
HETATM    5  C   UNK N   1      33.684  16.344   7.884  0.00  0.00    -0.009 C 
HETATM    6  C   UNK N   1      34.734  17.161   8.677  0.00  0.00     0.013 C 
HETATM    7  C   UNK N   1      34.960  16.555  10.061  0.00  0.00     0.006 C 
HETATM    8  C   UNK N   1      35.586  15.155   9.962  0.00  0.00    -0.002 C 
HETATM    9  C   UNK N   1      35.402  14.545   8.551  0.00  0.00    -0.005 C 
HETATM   10  C   UNK N   1      35.885  13.091   8.461  0.00  0.00     0.010 C 
HETATM   11  C   UNK N   1      35.246  12.221   9.532  0.00  0.00     0.035 C 
HETATM   12  C   UNK N   1      35.554  12.820  10.862  0.00  0.00    -0.072 C 
HETATM   13  C   UNK N   1      36.237  12.100  11.765  0.00  0.00     0.053 C 
HETATM   14  C   UNK N   1      36.488  12.643  13.107  0.00  0.00     0.149 C 
HETATM   15  O   UNK N   1      37.313  12.127  13.841  0.00  0.00    -0.293 OA
HETATM   16  C   UNK N   1      35.694  13.824  13.562  0.00  0.00     0.084 C 
HETATM   17  C   UNK N   1      35.671  14.842  12.433  0.00  0.00     0.017 C 
HETATM   18  C   UNK N   1      35.108  14.256  11.117  0.00  0.00     0.019 C 
HETATM   19  C   UNK N   1      32.331  16.586   8.545  0.00  0.00     0.019 C 
ENDROOT
BRANCH   1  20
HETATM   20  C   UNK N   1      32.349  16.609   5.634  0.00  0.00     0.034 C 
HETATM   21  C   UNK N   1      32.223  17.555   4.449  0.00  0.00     0.008 C 
ENDBRANCH   1  20
BRANCH   1  22
HETATM   22  O   UNK N   1      34.213  18.027   6.154  0.00  0.00    -0.389 OA
HETATM   23  H   UNK N   1      34.227  18.856   6.656  0.00  0.00     0.210 HD
ENDBRANCH   1  22
TORSDOF 2
ENDMDL
