MODEL 1
REMARK VINA RESULT:      -8.3      0.000      0.000
REMARK  7 active torsions:
REMARK  status: ('A' for Active; 'I' for Inactive)
REMARK    1  A    between atoms: C_3  and  O_29 
REMARK    2  A    between atoms: C_6  and  N_7 
REMARK       I    between atoms: N_7  and  C_8 
REMARK    3  A    between atoms: C_8  and  C_10 
REMARK    4  A    between atoms: C_12  and  C_23 
REMARK    5  A    between atoms: C_13  and  N_17 
REMARK    6  A    between atoms: C_20  and  O_22 
REMARK    7  A    between atoms: O_29  and  C_30 
ROOT
HETATM    1  C   UNK N   1      28.710  18.374   6.710  0.00  0.00     0.048 A 
HETATM    2  C   UNK N   1      29.610  17.734   5.877  0.00  0.00     0.036 A 
HETATM    3  C   UNK N   1      30.792  17.142   6.348  0.00  0.00     0.037 A 
HETATM    4  C   UNK N   1      31.033  17.206   7.780  0.00  0.00     0.116 A 
HETATM    5  N   UNK N   1      30.103  17.845   8.554  0.00  0.00    -0.351 N 
ATOM      6  HN  UNK N   1      30.268  17.890   9.559  1.00  0.00     0.166 HD
HETATM    7  C   UNK N   1      28.980  18.421   8.068  0.00  0.00     0.106 A 
ENDROOT
BRANCH   1   8
HETATM    8  C   UNK N   1      27.479  18.969   6.164  0.00  0.00     0.257 C 
HETATM    9  N   UNK N   1      26.866  18.381   5.103  0.00  0.00    -0.323 N 
HETATM   10  H   UNK N   1      27.210  17.504   4.817  0.00  0.00     0.169 HD
HETATM   11  O   UNK N   1      27.032  19.996   6.659  0.00  0.00    -0.267 OA
BRANCH   9  12
HETATM   12  C   UNK N   1      25.774  18.915   4.368  0.00  0.00     0.035 A 
HETATM   13  C   UNK N   1      24.441  18.595   4.677  0.00  0.00     0.032 A 
HETATM   14  C   UNK N   1      23.390  19.238   4.023  0.00  0.00     0.039 A 
HETATM   15  C   UNK N   1      23.654  20.216   3.060  0.00  0.00     0.076 A 
HETATM   16  C   UNK N   1      24.987  20.513   2.728  0.00  0.00     0.039 A 
HETATM   17  C   UNK N   1      26.037  19.870   3.384  0.00  0.00     0.032 A 
BRANCH  15  18
HETATM   18  O   UNK N   1      22.613  20.879   2.496  0.00  0.00    -0.270 OA
BRANCH  18  19
HETATM   19  C   UNK N   1      21.329  20.382   2.364  0.00  0.00     0.447 C 
HETATM   20  F   UNK N   1      21.361  19.006   2.220  0.00  0.00    -0.159 F 
HETATM   21  F   UNK N   1      20.612  20.694   3.502  0.00  0.00    -0.159 F 
HETATM   22 Cl   UNK N   1      20.493  21.120   0.965  0.00  0.00    -0.014 Cl
ENDBRANCH  18  19
ENDBRANCH  15  18
ENDBRANCH   9  12
ENDBRANCH   1   8
BRANCH   3  23
HETATM   23  C   UNK N   1      31.634  16.548   5.258  0.00  0.00     0.063 A 
HETATM   24  C   UNK N   1      32.691  17.216   4.652  0.00  0.00     0.050 A 
HETATM   25  C   UNK N   1      33.211  16.312   3.748  0.00  0.00     0.109 A 
HETATM   26  N   UNK N   1      32.501  15.172   3.828  0.00  0.00    -0.311 N 
HETATM   27  N   UNK N   1      31.557  15.316   4.739  0.00  0.00    -0.300 N 
ATOM     28  HN  UNK N   1      32.666  14.332   3.274  1.00  0.00     0.186 HD
HETATM   29  H   UNK N   1      30.900  14.627   4.996  0.00  0.00     0.187 HD
ENDBRANCH   3  23
BRANCH   4  30
HETATM   30  N   UNK N   1      32.161  16.649   8.478  0.00  0.00    -0.364 N 
HETATM   31  C   UNK N   1      33.520  17.081   8.401  0.00  0.00     0.127 C 
HETATM   32  C   UNK N   1      34.250  16.300   9.478  0.00  0.00     0.053 C 
HETATM   33  C   UNK N   1      33.371  15.092   9.741  0.00  0.00     0.137 C 
HETATM   34  C   UNK N   1      31.974  15.524   9.356  0.00  0.00     0.156 C 
BRANCH  33  35
HETATM   35  O   UNK N   1      33.416  14.738  11.088  0.00  0.00    -0.394 OA
HETATM   36  H   UNK N   1      32.965  14.040  11.587  0.00  0.00     0.210 HD
ENDBRANCH  33  35
ENDBRANCH   4  30
TORSDOF 7
ENDMDL
MODEL 2
REMARK VINA RESULT:      -8.0      5.302     10.665
REMARK  7 active torsions:
REMARK  status: ('A' for Active; 'I' for Inactive)
REMARK    1  A    between atoms: C_3  and  O_29 
REMARK    2  A    between atoms: C_6  and  N_7 
REMARK       I    between atoms: N_7  and  C_8 
REMARK    3  A    between atoms: C_8  and  C_10 
REMARK    4  A    between atoms: C_12  and  C_23 
REMARK    5  A    between atoms: C_13  and  N_17 
REMARK    6  A    between atoms: C_20  and  O_22 
REMARK    7  A    between atoms: O_29  and  C_30 
ROOT
HETATM    1  C   UNK N   1      25.909  18.993   4.633  0.00  0.00     0.048 A 
HETATM    2  C   UNK N   1      24.895  18.308   5.279  0.00  0.00     0.036 A 
HETATM    3  C   UNK N   1      23.553  18.383   4.878  0.00  0.00     0.037 A 
HETATM    4  C   UNK N   1      23.260  19.208   3.717  0.00  0.00     0.116 A 
HETATM    5  N   UNK N   1      24.305  19.855   3.116  0.00  0.00    -0.351 N 
ATOM      6  HN  UNK N   1      24.103  20.432   2.300  1.00  0.00     0.166 HD
HETATM    7  C   UNK N   1      25.588  19.775   3.536  0.00  0.00     0.106 A 
ENDROOT
BRANCH   1   8
HETATM    8  C   UNK N   1      27.304  18.869   5.090  0.00  0.00     0.257 C 
HETATM    9  N   UNK N   1      27.627  17.913   6.000  0.00  0.00    -0.323 N 
HETATM   10  H   UNK N   1      26.928  17.258   6.227  0.00  0.00     0.169 HD
HETATM   11  O   UNK N   1      28.152  19.641   4.660  0.00  0.00    -0.267 OA
BRANCH   9  12
HETATM   12  C   UNK N   1      28.881  17.771   6.653  0.00  0.00     0.035 A 
HETATM   13  C   UNK N   1      29.114  18.294   7.936  0.00  0.00     0.032 A 
HETATM   14  C   UNK N   1      30.309  18.023   8.602  0.00  0.00     0.039 A 
HETATM   15  C   UNK N   1      31.283  17.220   8.003  0.00  0.00     0.076 A 
HETATM   16  C   UNK N   1      31.063  16.724   6.706  0.00  0.00     0.039 A 
HETATM   17  C   UNK N   1      29.866  16.994   6.042  0.00  0.00     0.032 A 
BRANCH  15  18
HETATM   18  O   UNK N   1      32.403  16.911   8.705  0.00  0.00    -0.270 OA
BRANCH  18  19
HETATM   19  C   UNK N   1      33.652  17.466   8.497  0.00  0.00     0.447 C 
HETATM   20  F   UNK N   1      33.532  18.805   8.169  0.00  0.00    -0.159 F 
HETATM   21  F   UNK N   1      34.386  17.356   9.661  0.00  0.00    -0.159 F 
HETATM   22 Cl   UNK N   1      34.535  16.600   7.204  0.00  0.00    -0.014 Cl
ENDBRANCH  18  19
ENDBRANCH  15  18
ENDBRANCH   9  12
ENDBRANCH   1   8
BRANCH   3  23
HETATM   23  C   UNK N   1      22.626  17.593   5.754  0.00  0.00     0.063 A 
HETATM   24  C   UNK N   1      22.817  16.253   6.065  0.00  0.00     0.050 A 
HETATM   25  C   UNK N   1      21.776  15.933   6.912  0.00  0.00     0.109 A 
HETATM   26  N   UNK N   1      21.021  17.031   7.094  0.00  0.00    -0.311 N 
HETATM   27  N   UNK N   1      21.536  18.028   6.399  0.00  0.00    -0.300 N 
ATOM     28  HN  UNK N   1      20.185  17.084   7.675  1.00  0.00     0.186 HD
HETATM   29  H   UNK N   1      21.177  18.945   6.362  0.00  0.00     0.187 HD
ENDBRANCH   3  23
BRANCH   4  30
HETATM   30  N   UNK N   1      21.966  19.409   3.122  0.00  0.00    -0.364 N 
HETATM   31  C   UNK N   1      21.425  20.636   2.632  0.00  0.00     0.127 C 
HETATM   32  C   UNK N   1      20.135  20.253   1.931  0.00  0.00     0.053 C 
HETATM   33  C   UNK N   1      19.757  18.909   2.524  0.00  0.00     0.137 C 
HETATM   34  C   UNK N   1      21.061  18.298   2.987  0.00  0.00     0.156 C 
BRANCH  33  35
HETATM   35  O   UNK N   1      19.157  18.100   1.561  0.00  0.00    -0.394 OA
HETATM   36  H   UNK N   1      18.414  17.479   1.611  0.00  0.00     0.210 HD
ENDBRANCH  33  35
ENDBRANCH   4  30
TORSDOF 7
ENDMDL
MODEL 3
REMARK VINA RESULT:      -7.9      3.871      6.046
REMARK  7 active torsions:
REMARK  status: ('A' for Active; 'I' for Inactive)
REMARK    1  A    between atoms: C_3  and  O_29 
REMARK    2  A    between atoms: C_6  and  N_7 
REMARK       I    between atoms: N_7  and  C_8 
REMARK    3  A    between atoms: C_8  and  C_10 
REMARK    4  A    between atoms: C_12  and  C_23 
REMARK    5  A    between atoms: C_13  and  N_17 
REMARK    6  A    between atoms: C_20  and  O_22 
REMARK    7  A    between atoms: O_29  and  C_30 
ROOT
HETATM    1  C   UNK N   1      33.399  16.140   8.924  0.00  0.00     0.048 A 
HETATM    2  C   UNK N   1      33.152  14.781   8.843  0.00  0.00     0.036 A 
HETATM    3  C   UNK N   1      34.055  13.816   9.313  0.00  0.00     0.037 A 
HETATM    4  C   UNK N   1      35.279  14.305   9.925  0.00  0.00     0.116 A 
HETATM    5  N   UNK N   1      35.464  15.659   9.984  0.00  0.00    -0.351 N 
ATOM      6  HN  UNK N   1      36.321  16.006  10.415  1.00  0.00     0.166 HD
HETATM    7  C   UNK N   1      34.581  16.566   9.507  0.00  0.00     0.106 A 
ENDROOT
BRANCH   1   8
HETATM    8  C   UNK N   1      32.411  17.111   8.425  0.00  0.00     0.257 C 
HETATM    9  N   UNK N   1      31.130  16.710   8.208  0.00  0.00    -0.323 N 
HETATM   10  H   UNK N   1      30.888  15.806   8.512  0.00  0.00     0.169 HD
HETATM   11  O   UNK N   1      32.758  18.262   8.193  0.00  0.00    -0.267 OA
BRANCH   9  12
HETATM   12  C   UNK N   1      30.110  17.476   7.583  0.00  0.00     0.035 A 
HETATM   13  C   UNK N   1      29.825  17.357   6.212  0.00  0.00     0.032 A 
HETATM   14  C   UNK N   1      28.732  18.023   5.658  0.00  0.00     0.039 A 
HETATM   15  C   UNK N   1      27.904  18.809   6.464  0.00  0.00     0.076 A 
HETATM   16  C   UNK N   1      28.209  18.954   7.829  0.00  0.00     0.039 A 
HETATM   17  C   UNK N   1      29.301  18.286   8.382  0.00  0.00     0.032 A 
BRANCH  15  18
HETATM   18  O   UNK N   1      26.804  19.383   5.914  0.00  0.00    -0.270 OA
BRANCH  18  19
HETATM   19  C   UNK N   1      26.785  20.602   5.260  0.00  0.00     0.447 C 
HETATM   20  F   UNK N   1      25.763  21.394   5.755  0.00  0.00    -0.159 F 
HETATM   21  F   UNK N   1      27.989  21.242   5.478  0.00  0.00    -0.159 F 
HETATM   22 Cl   UNK N   1      26.585  20.385   3.496  0.00  0.00    -0.014 Cl
ENDBRANCH  18  19
ENDBRANCH  15  18
ENDBRANCH   9  12
ENDBRANCH   1   8
BRANCH   3  23
HETATM   23  C   UNK N   1      33.596  12.407   9.077  0.00  0.00     0.063 A 
HETATM   24  C   UNK N   1      34.358  11.450   8.420  0.00  0.00     0.050 A 
HETATM   25  C   UNK N   1      33.593  10.302   8.454  0.00  0.00     0.109 A 
HETATM   26  N   UNK N   1      32.447  10.572   9.104  0.00  0.00    -0.311 N 
HETATM   27  N   UNK N   1      32.453  11.838   9.481  0.00  0.00    -0.300 N 
ATOM     28  HN  UNK N   1      31.694   9.906   9.279  1.00  0.00     0.186 HD
HETATM   29  H   UNK N   1      31.733  12.290   9.978  0.00  0.00     0.187 HD
ENDBRANCH   3  23
BRANCH   4  30
HETATM   30  N   UNK N   1      36.328  13.499  10.492  0.00  0.00    -0.364 N 
HETATM   31  C   UNK N   1      37.537  13.088   9.854  0.00  0.00     0.127 C 
HETATM   32  C   UNK N   1      38.367  12.442  10.949  0.00  0.00     0.053 C 
HETATM   33  C   UNK N   1      37.362  12.053  12.016  0.00  0.00     0.137 C 
HETATM   34  C   UNK N   1      36.203  13.007  11.839  0.00  0.00     0.156 C 
BRANCH  33  35
HETATM   35  O   UNK N   1      37.918  12.195  13.287  0.00  0.00    -0.394 OA
HETATM   36  H   UNK N   1      37.575  11.983  14.168  0.00  0.00     0.210 HD
ENDBRANCH  33  35
ENDBRANCH   4  30
TORSDOF 7
ENDMDL
MODEL 4
REMARK VINA RESULT:      -7.8      4.344      7.073
REMARK  7 active torsions:
REMARK  status: ('A' for Active; 'I' for Inactive)
REMARK    1  A    between atoms: C_3  and  O_29 
REMARK    2  A    between atoms: C_6  and  N_7 
REMARK       I    between atoms: N_7  and  C_8 
REMARK    3  A    between atoms: C_8  and  C_10 
REMARK    4  A    between atoms: C_12  and  C_23 
REMARK    5  A    between atoms: C_13  and  N_17 
REMARK    6  A    between atoms: C_20  and  O_22 
REMARK    7  A    between atoms: O_29  and  C_30 
ROOT
HETATM    1  C   UNK N   1      33.842  16.029   8.510  0.00  0.00     0.048 A 
HETATM    2  C   UNK N   1      34.291  15.732   9.785  0.00  0.00     0.036 A 
HETATM    3  C   UNK N   1      35.360  14.857  10.028  0.00  0.00     0.037 A 
HETATM    4  C   UNK N   1      36.011  14.277   8.865  0.00  0.00     0.116 A 
HETATM    5  N   UNK N   1      35.528  14.614   7.631  0.00  0.00    -0.351 N 
ATOM      6  HN  UNK N   1      35.983  14.210   6.812  1.00  0.00     0.166 HD
HETATM    7  C   UNK N   1      34.483  15.449   7.429  0.00  0.00     0.106 A 
ENDROOT
BRANCH   1   8
HETATM    8  C   UNK N   1      32.721  16.964   8.312  0.00  0.00     0.257 C 
HETATM    9  N   UNK N   1      31.445  16.510   8.416  0.00  0.00    -0.323 N 
HETATM   10  H   UNK N   1      31.323  15.589   8.742  0.00  0.00     0.169 HD
HETATM   11  O   UNK N   1      32.952  18.135   8.037  0.00  0.00    -0.267 OA
BRANCH   9  12
HETATM   12  C   UNK N   1      30.270  17.242   8.097  0.00  0.00     0.035 A 
HETATM   13  C   UNK N   1      29.619  18.053   9.043  0.00  0.00     0.032 A 
HETATM   14  C   UNK N   1      28.547  18.860   8.663  0.00  0.00     0.039 A 
HETATM   15  C   UNK N   1      28.116  18.877   7.334  0.00  0.00     0.076 A 
HETATM   16  C   UNK N   1      28.745  18.042   6.395  0.00  0.00     0.039 A 
HETATM   17  C   UNK N   1      29.818  17.236   6.776  0.00  0.00     0.032 A 
BRANCH  15  18
HETATM   18  O   UNK N   1      27.121  19.729   6.978  0.00  0.00    -0.270 OA
BRANCH  18  19
HETATM   19  C   UNK N   1      27.273  20.833   6.158  0.00  0.00     0.447 C 
HETATM   20  F   UNK N   1      26.265  21.750   6.398  0.00  0.00    -0.159 F 
HETATM   21  F   UNK N   1      28.490  21.425   6.432  0.00  0.00    -0.159 F 
HETATM   22 Cl   UNK N   1      27.266  20.360   4.432  0.00  0.00    -0.014 Cl
ENDBRANCH  18  19
ENDBRANCH  15  18
ENDBRANCH   9  12
ENDBRANCH   1   8
BRANCH   3  23
HETATM   23  C   UNK N   1      35.640  14.651  11.488  0.00  0.00     0.063 A 
HETATM   24  C   UNK N   1      35.106  13.608  12.234  0.00  0.00     0.050 A 
HETATM   25  C   UNK N   1      35.640  13.765  13.496  0.00  0.00     0.109 A 
HETATM   26  N   UNK N   1      36.451  14.838  13.487  0.00  0.00    -0.311 N 
HETATM   27  N   UNK N   1      36.451  15.367  12.277  0.00  0.00    -0.300 N 
ATOM     28  HN  UNK N   1      36.980  15.187  14.286  1.00  0.00     0.186 HD
HETATM   29  H   UNK N   1      36.966  16.160  12.000  0.00  0.00     0.187 HD
ENDBRANCH   3  23
BRANCH   4  30
HETATM   30  N   UNK N   1      37.134  13.378   8.879  0.00  0.00    -0.364 N 
HETATM   31  C   UNK N   1      37.140  12.014   9.302  0.00  0.00     0.127 C 
HETATM   32  C   UNK N   1      38.510  11.483   8.921  0.00  0.00     0.053 C 
HETATM   33  C   UNK N   1      39.380  12.718   8.788  0.00  0.00     0.137 C 
HETATM   34  C   UNK N   1      38.427  13.842   8.447  0.00  0.00     0.156 C 
BRANCH  33  35
HETATM   35  O   UNK N   1      40.316  12.550   7.769  0.00  0.00    -0.394 OA
HETATM   36  H   UNK N   1      40.216  12.467   6.808  0.00  0.00     0.210 HD
ENDBRANCH  33  35
ENDBRANCH   4  30
TORSDOF 7
ENDMDL
MODEL 5
REMARK VINA RESULT:      -7.8     11.647     15.492
REMARK  7 active torsions:
REMARK  status: ('A' for Active; 'I' for Inactive)
REMARK    1  A    between atoms: C_3  and  O_29 
REMARK    2  A    between atoms: C_6  and  N_7 
REMARK       I    between atoms: N_7  and  C_8 
REMARK    3  A    between atoms: C_8  and  C_10 
REMARK    4  A    between atoms: C_12  and  C_23 
REMARK    5  A    between atoms: C_13  and  N_17 
REMARK    6  A    between atoms: C_20  and  O_22 
REMARK    7  A    between atoms: O_29  and  C_30 
ROOT
HETATM    1  C   UNK N   1      35.862  12.666  14.220  0.00  0.00     0.048 A 
HETATM    2  C   UNK N   1      35.337  13.581  13.324  0.00  0.00     0.036 A 
HETATM    3  C   UNK N   1      35.878  13.788  12.046  0.00  0.00     0.037 A 
HETATM    4  C   UNK N   1      37.021  12.970  11.677  0.00  0.00     0.116 A 
HETATM    5  N   UNK N   1      37.491  12.077  12.600  0.00  0.00    -0.351 N 
ATOM      6  HN  UNK N   1      38.292  11.501  12.344  1.00  0.00     0.166 HD
HETATM    7  C   UNK N   1      36.958  11.912  13.833  0.00  0.00     0.106 A 
ENDROOT
BRANCH   1   8
HETATM    8  C   UNK N   1      35.248  12.481  15.546  0.00  0.00     0.257 C 
HETATM    9  N   UNK N   1      35.868  11.697  16.466  0.00  0.00    -0.323 N 
HETATM   10  H   UNK N   1      36.773  11.378  16.245  0.00  0.00     0.169 HD
HETATM   11  O   UNK N   1      34.178  13.020  15.797  0.00  0.00    -0.267 OA
BRANCH   9  12
HETATM   12  C   UNK N   1      35.331  11.294  17.718  0.00  0.00     0.035 A 
HETATM   13  C   UNK N   1      34.804  10.008  17.922  0.00  0.00     0.032 A 
HETATM   14  C   UNK N   1      34.407   9.601  19.196  0.00  0.00     0.039 A 
HETATM   15  C   UNK N   1      34.538  10.468  20.284  0.00  0.00     0.076 A 
HETATM   16  C   UNK N   1      35.034  11.766  20.074  0.00  0.00     0.039 A 
HETATM   17  C   UNK N   1      35.433  12.171  18.800  0.00  0.00     0.032 A 
BRANCH  15  18
HETATM   18  O   UNK N   1      34.215  10.019  21.524  0.00  0.00    -0.270 OA
BRANCH  18  19
HETATM   19  C   UNK N   1      32.998  10.216  22.151  0.00  0.00     0.447 C 
HETATM   20  F   UNK N   1      32.928  11.498  22.667  0.00  0.00    -0.159 F 
HETATM   21  F   UNK N   1      31.989  10.054  21.222  0.00  0.00    -0.159 F 
HETATM   22 Cl   UNK N   1      32.745   9.019  23.456  0.00  0.00    -0.014 Cl
ENDBRANCH  18  19
ENDBRANCH  15  18
ENDBRANCH   9  12
ENDBRANCH   1   8
BRANCH   3  23
HETATM   23  C   UNK N   1      35.173  14.861  11.270  0.00  0.00     0.063 A 
HETATM   24  C   UNK N   1      35.801  16.008  10.799  0.00  0.00     0.050 A 
HETATM   25  C   UNK N   1      34.818  16.696  10.117  0.00  0.00     0.109 A 
HETATM   26  N   UNK N   1      33.679  15.983  10.177  0.00  0.00    -0.311 N 
HETATM   27  N   UNK N   1      33.896  14.880  10.867  0.00  0.00    -0.300 N 
ATOM     28  HN  UNK N   1      32.790  16.254   9.756  1.00  0.00     0.186 HD
HETATM   29  H   UNK N   1      33.227  14.182  11.056  0.00  0.00     0.187 HD
ENDBRANCH   3  23
BRANCH   4  30
HETATM   30  N   UNK N   1      37.715  12.998  10.417  0.00  0.00    -0.364 N 
HETATM   31  C   UNK N   1      39.086  13.332  10.196  0.00  0.00     0.127 C 
HETATM   32  C   UNK N   1      39.347  13.005   8.737  0.00  0.00     0.053 C 
HETATM   33  C   UNK N   1      37.976  13.008   8.089  0.00  0.00     0.137 C 
HETATM   34  C   UNK N   1      37.008  12.681   9.204  0.00  0.00     0.156 C 
BRANCH  33  35
HETATM   35  O   UNK N   1      37.906  12.043   7.086  0.00  0.00    -0.394 OA
HETATM   36  H   UNK N   1      37.157  11.687   6.584  0.00  0.00     0.210 HD
ENDBRANCH  33  35
ENDBRANCH   4  30
TORSDOF 7
ENDMDL
MODEL 6
REMARK VINA RESULT:      -7.6      9.551     14.142
REMARK  7 active torsions:
REMARK  status: ('A' for Active; 'I' for Inactive)
REMARK    1  A    between atoms: C_3  and  O_29 
REMARK    2  A    between atoms: C_6  and  N_7 
REMARK       I    between atoms: N_7  and  C_8 
REMARK    3  A    between atoms: C_8  and  C_10 
REMARK    4  A    between atoms: C_12  and  C_23 
REMARK    5  A    between atoms: C_13  and  N_17 
REMARK    6  A    between atoms: C_20  and  O_22 
REMARK    7  A    between atoms: O_29  and  C_30 
ROOT
HETATM    1  C   UNK N   1      35.091  14.216  12.076  0.00  0.00     0.048 A 
HETATM    2  C   UNK N   1      34.653  13.319  11.118  0.00  0.00     0.036 A 
HETATM    3  C   UNK N   1      34.128  13.727   9.882  0.00  0.00     0.037 A 
HETATM    4  C   UNK N   1      34.081  15.157   9.627  0.00  0.00     0.116 A 
HETATM    5  N   UNK N   1      34.536  15.994  10.609  0.00  0.00    -0.351 N 
ATOM      6  HN  UNK N   1      34.507  16.998  10.433  1.00  0.00     0.166 HD
HETATM    7  C   UNK N   1      35.022  15.571  11.798  0.00  0.00     0.106 A 
ENDROOT
BRANCH   1   8
HETATM    8  C   UNK N   1      35.644  13.734  13.353  0.00  0.00     0.257 C 
HETATM    9  N   UNK N   1      34.993  12.756  14.037  0.00  0.00    -0.323 N 
HETATM   10  H   UNK N   1      34.234  12.323  13.584  0.00  0.00     0.169 HD
HETATM   11  O   UNK N   1      36.673  14.231  13.793  0.00  0.00    -0.267 OA
BRANCH   9  12
HETATM   12  C   UNK N   1      35.307  12.302  15.346  0.00  0.00     0.035 A 
HETATM   13  C   UNK N   1      34.855  12.972  16.495  0.00  0.00     0.032 A 
HETATM   14  C   UNK N   1      35.069  12.427  17.761  0.00  0.00     0.039 A 
HETATM   15  C   UNK N   1      35.727  11.202  17.897  0.00  0.00     0.076 A 
HETATM   16  C   UNK N   1      36.207  10.547  16.750  0.00  0.00     0.039 A 
HETATM   17  C   UNK N   1      35.992  11.093  15.485  0.00  0.00     0.032 A 
BRANCH  15  18
HETATM   18  O   UNK N   1      35.853  10.658  19.135  0.00  0.00    -0.270 OA
BRANCH  18  19
HETATM   19  C   UNK N   1      34.955   9.779  19.714  0.00  0.00     0.447 C 
HETATM   20  F   UNK N   1      33.969   9.436  18.806  0.00  0.00    -0.159 F 
HETATM   21  F   UNK N   1      35.633   8.637  20.089  0.00  0.00    -0.159 F 
HETATM   22 Cl   UNK N   1      34.212  10.489  21.179  0.00  0.00    -0.014 Cl
ENDBRANCH  18  19
ENDBRANCH  15  18
ENDBRANCH   9  12
ENDBRANCH   1   8
BRANCH   3  23
HETATM   23  C   UNK N   1      33.675  12.583   9.023  0.00  0.00     0.063 A 
HETATM   24  C   UNK N   1      34.280  12.238   7.820  0.00  0.00     0.050 A 
HETATM   25  C   UNK N   1      33.591  11.125   7.382  0.00  0.00     0.109 A 
HETATM   26  N   UNK N   1      32.639  10.830   8.287  0.00  0.00    -0.311 N 
HETATM   27  N   UNK N   1      32.695  11.705   9.273  0.00  0.00    -0.300 N 
ATOM     28  HN  UNK N   1      31.981  10.053   8.220  1.00  0.00     0.186 HD
HETATM   29  H   UNK N   1      32.110  11.712  10.066  0.00  0.00     0.187 HD
ENDBRANCH   3  23
BRANCH   4  30
HETATM   30  N   UNK N   1      33.607  15.792   8.426  0.00  0.00    -0.364 N 
HETATM   31  C   UNK N   1      32.251  15.923   7.999  0.00  0.00     0.127 C 
HETATM   32  C   UNK N   1      32.298  16.841   6.793  0.00  0.00     0.053 C 
HETATM   33  C   UNK N   1      33.726  16.747   6.291  0.00  0.00     0.137 C 
HETATM   34  C   UNK N   1      34.549  16.366   7.501  0.00  0.00     0.156 C 
BRANCH  33  35
HETATM   35  O   UNK N   1      34.149  17.975   5.784  0.00  0.00    -0.394 OA
HETATM   36  H   UNK N   1      34.803  18.614   6.104  0.00  0.00     0.210 HD
ENDBRANCH  33  35
ENDBRANCH   4  30
TORSDOF 7
ENDMDL
MODEL 7
REMARK VINA RESULT:      -7.5      6.021     10.335
REMARK  7 active torsions:
REMARK  status: ('A' for Active; 'I' for Inactive)
REMARK    1  A    between atoms: C_3  and  O_29 
REMARK    2  A    between atoms: C_6  and  N_7 
REMARK       I    between atoms: N_7  and  C_8 
REMARK    3  A    between atoms: C_8  and  C_10 
REMARK    4  A    between atoms: C_12  and  C_23 
REMARK    5  A    between atoms: C_13  and  N_17 
REMARK    6  A    between atoms: C_20  and  O_22 
REMARK    7  A    between atoms: O_29  and  C_30 
ROOT
HETATM    1  C   UNK N   1      28.862  18.228   7.119  0.00  0.00     0.048 A 
HETATM    2  C   UNK N   1      28.698  17.448   5.988  0.00  0.00     0.036 A 
HETATM    3  C   UNK N   1      27.607  17.593   5.118  0.00  0.00     0.037 A 
HETATM    4  C   UNK N   1      26.643  18.631   5.440  0.00  0.00     0.116 A 
HETATM    5  N   UNK N   1      26.862  19.376   6.567  0.00  0.00    -0.351 N 
ATOM      6  HN  UNK N   1      26.189  20.107   6.795  1.00  0.00     0.166 HD
HETATM    7  C   UNK N   1      27.917  19.202   7.396  0.00  0.00     0.106 A 
ENDROOT
BRANCH   1   8
HETATM    8  C   UNK N   1      30.033  18.041   7.993  0.00  0.00     0.257 C 
HETATM    9  N   UNK N   1      31.110  17.355   7.529  0.00  0.00    -0.323 N 
HETATM   10  H   UNK N   1      31.109  17.112   6.575  0.00  0.00     0.169 HD
HETATM   11  O   UNK N   1      30.015  18.490   9.132  0.00  0.00    -0.267 OA
BRANCH   9  12
HETATM   12  C   UNK N   1      32.238  16.956   8.294  0.00  0.00     0.035 A 
HETATM   13  C   UNK N   1      32.286  15.718   8.959  0.00  0.00     0.032 A 
HETATM   14  C   UNK N   1      33.458  15.301   9.590  0.00  0.00     0.039 A 
HETATM   15  C   UNK N   1      34.599  16.106   9.559  0.00  0.00     0.076 A 
HETATM   16  C   UNK N   1      34.541  17.358   8.922  0.00  0.00     0.039 A 
HETATM   17  C   UNK N   1      33.370  17.773   8.290  0.00  0.00     0.032 A 
BRANCH  15  18
HETATM   18  O   UNK N   1      35.746  15.640  10.116  0.00  0.00    -0.270 OA
BRANCH  18  19
HETATM   19  C   UNK N   1      36.467  14.551   9.661  0.00  0.00     0.447 C 
HETATM   20  F   UNK N   1      37.818  14.740   9.895  0.00  0.00    -0.159 F 
HETATM   21  F   UNK N   1      36.050  13.426  10.345  0.00  0.00    -0.159 F 
HETATM   22 Cl   UNK N   1      36.185  14.274   7.916  0.00  0.00    -0.014 Cl
ENDBRANCH  18  19
ENDBRANCH  15  18
ENDBRANCH   9  12
ENDBRANCH   1   8
BRANCH   3  23
HETATM   23  C   UNK N   1      27.616  16.608   3.985  0.00  0.00     0.063 A 
HETATM   24  C   UNK N   1      28.720  16.380   3.173  0.00  0.00     0.050 A 
HETATM   25  C   UNK N   1      28.320  15.389   2.300  0.00  0.00     0.109 A 
HETATM   26  N   UNK N   1      27.051  15.049   2.593  0.00  0.00    -0.311 N 
HETATM   27  N   UNK N   1      26.632  15.782   3.608  0.00  0.00    -0.300 N 
ATOM     28  HN  UNK N   1      26.502  14.340   2.107  1.00  0.00     0.186 HD
HETATM   29  H   UNK N   1      25.739  15.728   4.022  0.00  0.00     0.187 HD
ENDBRANCH   3  23
BRANCH   4  30
HETATM   30  N   UNK N   1      25.469  18.968   4.679  0.00  0.00    -0.364 N 
HETATM   31  C   UNK N   1      24.254  18.222   4.596  0.00  0.00     0.127 C 
HETATM   32  C   UNK N   1      23.288  19.115   3.839  0.00  0.00     0.053 C 
HETATM   33  C   UNK N   1      24.173  20.087   3.082  0.00  0.00     0.137 C 
HETATM   34  C   UNK N   1      25.454  20.166   3.881  0.00  0.00     0.156 C 
BRANCH  33  35
HETATM   35  O   UNK N   1      23.570  21.341   3.006  0.00  0.00    -0.394 OA
HETATM   36  H   UNK N   1      23.699  22.151   3.522  0.00  0.00     0.210 HD
ENDBRANCH  33  35
ENDBRANCH   4  30
TORSDOF 7
ENDMDL
MODEL 8
REMARK VINA RESULT:      -7.5      7.029     10.494
REMARK  7 active torsions:
REMARK  status: ('A' for Active; 'I' for Inactive)
REMARK    1  A    between atoms: C_3  and  O_29 
REMARK    2  A    between atoms: C_6  and  N_7 
REMARK       I    between atoms: N_7  and  C_8 
REMARK    3  A    between atoms: C_8  and  C_10 
REMARK    4  A    between atoms: C_12  and  C_23 
REMARK    5  A    between atoms: C_13  and  N_17 
REMARK    6  A    between atoms: C_20  and  O_22 
REMARK    7  A    between atoms: O_29  and  C_30 
ROOT
HETATM    1  C   UNK N   1      35.873  14.211  11.978  0.00  0.00     0.048 A 
HETATM    2  C   UNK N   1      35.695  12.845  11.837  0.00  0.00     0.036 A 
HETATM    3  C   UNK N   1      35.702  11.963  12.928  0.00  0.00     0.037 A 
HETATM    4  C   UNK N   1      35.883  12.550  14.246  0.00  0.00     0.116 A 
HETATM    5  N   UNK N   1      36.046  13.906  14.322  0.00  0.00    -0.351 N 
ATOM      6  HN  UNK N   1      36.171  14.321  15.245  1.00  0.00     0.166 HD
HETATM    7  C   UNK N   1      36.051  14.729  13.250  0.00  0.00     0.106 A 
ENDROOT
BRANCH   1   8
HETATM    8  C   UNK N   1      35.846  15.093  10.799  0.00  0.00     0.257 C 
HETATM    9  N   UNK N   1      34.682  15.265  10.119  0.00  0.00    -0.323 N 
HETATM   10  H   UNK N   1      33.869  14.881  10.520  0.00  0.00     0.169 HD
HETATM   11  O   UNK N   1      36.875  15.646  10.434  0.00  0.00    -0.267 OA
BRANCH   9  12
HETATM   12  C   UNK N   1      34.530  15.947   8.882  0.00  0.00     0.035 A 
HETATM   13  C   UNK N   1      34.852  15.343   7.655  0.00  0.00     0.032 A 
HETATM   14  C   UNK N   1      34.567  15.991   6.453  0.00  0.00     0.039 A 
HETATM   15  C   UNK N   1      33.948  17.244   6.458  0.00  0.00     0.076 A 
HETATM   16  C   UNK N   1      33.655  17.862   7.686  0.00  0.00     0.039 A 
HETATM   17  C   UNK N   1      33.940  17.212   8.887  0.00  0.00     0.032 A 
BRANCH  15  18
HETATM   18  O   UNK N   1      33.613  17.816   5.274  0.00  0.00    -0.270 OA
BRANCH  18  19
HETATM   19  C   UNK N   1      32.596  17.386   4.441  0.00  0.00     0.447 C 
HETATM   20  F   UNK N   1      31.681  16.631   5.153  0.00  0.00    -0.159 F 
HETATM   21  F   UNK N   1      31.953  18.490   3.919  0.00  0.00    -0.159 F 
HETATM   22 Cl   UNK N   1      33.243  16.426   3.076  0.00  0.00    -0.014 Cl
ENDBRANCH  18  19
ENDBRANCH  15  18
ENDBRANCH   9  12
ENDBRANCH   1   8
BRANCH   3  23
HETATM   23  C   UNK N   1      35.536  10.526  12.531  0.00  0.00     0.063 A 
HETATM   24  C   UNK N   1      34.304   9.890  12.440  0.00  0.00     0.050 A 
HETATM   25  C   UNK N   1      34.595   8.611  12.013  0.00  0.00     0.109 A 
HETATM   26  N   UNK N   1      35.927   8.507  11.854  0.00  0.00    -0.311 N 
HETATM   27  N   UNK N   1      36.489   9.660  12.163  0.00  0.00    -0.300 N 
ATOM     28  HN  UNK N   1      36.422   7.670  11.545  1.00  0.00     0.186 HD
HETATM   29  H   UNK N   1      37.455   9.854  12.128  0.00  0.00     0.187 HD
ENDBRANCH   3  23
BRANCH   4  30
HETATM   30  N   UNK N   1      35.899  11.840  15.498  0.00  0.00    -0.364 N 
HETATM   31  C   UNK N   1      36.595  10.628  15.791  0.00  0.00     0.127 C 
HETATM   32  C   UNK N   1      36.443  10.432  17.288  0.00  0.00     0.053 C 
HETATM   33  C   UNK N   1      35.228  11.258  17.664  0.00  0.00     0.137 C 
HETATM   34  C   UNK N   1      35.142  12.343  16.614  0.00  0.00     0.156 C 
BRANCH  33  35
HETATM   35  O   UNK N   1      35.391  11.820  18.930  0.00  0.00    -0.394 OA
HETATM   36  H   UNK N   1      36.125  11.785  19.561  0.00  0.00     0.210 HD
ENDBRANCH  33  35
ENDBRANCH   4  30
TORSDOF 7
ENDMDL
MODEL 9
REMARK VINA RESULT:      -7.3      6.936     10.663
REMARK  7 active torsions:
REMARK  status: ('A' for Active; 'I' for Inactive)
REMARK    1  A    between atoms: C_3  and  O_29 
REMARK    2  A    between atoms: C_6  and  N_7 
REMARK       I    between atoms: N_7  and  C_8 
REMARK    3  A    between atoms: C_8  and  C_10 
REMARK    4  A    between atoms: C_12  and  C_23 
REMARK    5  A    between atoms: C_13  and  N_17 
REMARK    6  A    between atoms: C_20  and  O_22 
REMARK    7  A    between atoms: O_29  and  C_30 
ROOT
HETATM    1  C   UNK N   1      34.968  13.318  11.720  0.00  0.00     0.048 A 
HETATM    2  C   UNK N   1      35.522  13.931  12.830  0.00  0.00     0.036 A 
HETATM    3  C   UNK N   1      35.828  13.234  14.009  0.00  0.00     0.037 A 
HETATM    4  C   UNK N   1      35.558  11.806  14.015  0.00  0.00     0.116 A 
HETATM    5  N   UNK N   1      35.017  11.255  12.886  0.00  0.00    -0.351 N 
ATOM      6  HN  UNK N   1      34.829  10.252  12.886  1.00  0.00     0.166 HD
HETATM    7  C   UNK N   1      34.718  11.957  11.769  0.00  0.00     0.106 A 
ENDROOT
BRANCH   1   8
HETATM    8  C   UNK N   1      34.677  14.096  10.504  0.00  0.00     0.257 C 
HETATM    9  N   UNK N   1      33.641  14.976  10.505  0.00  0.00    -0.323 N 
HETATM   10  H   UNK N   1      33.199  15.145  11.368  0.00  0.00     0.169 HD
HETATM   11  O   UNK N   1      35.359  13.928   9.501  0.00  0.00    -0.267 OA
BRANCH   9  12
HETATM   12  C   UNK N   1      33.139  15.675   9.375  0.00  0.00     0.035 A 
HETATM   13  C   UNK N   1      33.743  16.851   8.898  0.00  0.00     0.032 A 
HETATM   14  C   UNK N   1      33.306  17.438   7.711  0.00  0.00     0.039 A 
HETATM   15  C   UNK N   1      32.267  16.856   6.979  0.00  0.00     0.076 A 
HETATM   16  C   UNK N   1      31.641  15.699   7.473  0.00  0.00     0.039 A 
HETATM   17  C   UNK N   1      32.081  15.112   8.660  0.00  0.00     0.032 A 
BRANCH  15  18
HETATM   18  O   UNK N   1      31.915  17.405   5.789  0.00  0.00    -0.270 OA
BRANCH  18  19
HETATM   19  C   UNK N   1      32.635  17.290   4.613  0.00  0.00     0.447 C 
HETATM   20  F   UNK N   1      31.796  17.436   3.522  0.00  0.00    -0.159 F 
HETATM   21  F   UNK N   1      33.589  18.288   4.578  0.00  0.00    -0.159 F 
HETATM   22 Cl   UNK N   1      33.478  15.715   4.526  0.00  0.00    -0.014 Cl
ENDBRANCH  18  19
ENDBRANCH  15  18
ENDBRANCH   9  12
ENDBRANCH   1   8
BRANCH   3  23
HETATM   23  C   UNK N   1      36.377  14.113  15.094  0.00  0.00     0.063 A 
HETATM   24  C   UNK N   1      36.055  13.967  16.438  0.00  0.00     0.050 A 
HETATM   25  C   UNK N   1      36.794  14.935  17.087  0.00  0.00     0.109 A 
HETATM   26  N   UNK N   1      37.517  15.605  16.171  0.00  0.00    -0.311 N 
HETATM   27  N   UNK N   1      37.267  15.106  14.975  0.00  0.00    -0.300 N 
ATOM     28  HN  UNK N   1      38.156  16.375  16.370  1.00  0.00     0.186 HD
HETATM   29  H   UNK N   1      37.670  15.415  14.130  0.00  0.00     0.187 HD
ENDBRANCH   3  23
BRANCH   4  30
HETATM   30  N   UNK N   1      35.813  10.897  15.101  0.00  0.00    -0.364 N 
HETATM   31  C   UNK N   1      37.083  10.407  15.533  0.00  0.00     0.127 C 
HETATM   32  C   UNK N   1      36.806   9.659  16.824  0.00  0.00     0.053 C 
HETATM   33  C   UNK N   1      35.328   9.321  16.764  0.00  0.00     0.137 C 
HETATM   34  C   UNK N   1      34.714  10.374  15.869  0.00  0.00     0.156 C 
BRANCH  33  35
HETATM   35  O   UNK N   1      34.762   9.375  18.037  0.00  0.00    -0.394 OA
HETATM   36  H   UNK N   1      33.897   9.685  18.345  0.00  0.00     0.210 HD
ENDBRANCH  33  35
ENDBRANCH   4  30
TORSDOF 7
ENDMDL
