MODEL 1
REMARK VINA RESULT:      -6.3      0.000      0.000
REMARK  4 active torsions:
REMARK  status: ('A' for Active; 'I' for Inactive)
REMARK    1  A    between atoms: C_2  and  C_3 
REMARK    2  A    between atoms: C_3  and  N_4 
REMARK    3  A    between atoms: N_4  and  C_5 
REMARK    4  A    between atoms: N_4  and  N_13 
ROOT
HETATM    1  N   UNK N   1      21.776  13.207   8.305  0.00  0.00    -0.283 N 
ENDROOT
BRANCH   1   2
HETATM    2  C   UNK N   1      21.298  12.273   7.272  0.00  0.00     0.149 C 
BRANCH   2   3
HETATM    3  C   UNK N   1      22.076  11.647   6.153  0.00  0.00     0.017 C 
HETATM    4  C   UNK N   1      21.663  12.322   4.860  0.00  0.00     0.007 C 
ENDBRANCH   2   3
ENDBRANCH   1   2
BRANCH   1   5
HETATM    5  C   UNK N   1      22.738  12.887   9.389  0.00  0.00     0.092 A 
HETATM    6  C   UNK N   1      24.104  13.171   9.177  0.00  0.00     0.051 A 
HETATM    7  C   UNK N   1      25.086  12.910  10.128  0.00  0.00     0.090 A 
HETATM    8  N   UNK N   1      24.747  12.361  11.315  0.00  0.00    -0.372 N 
HETATM    9  C   UNK N   1      23.459  12.059  11.594  0.00  0.00     0.132 A 
ATOM     10  HN  UNK N   1      25.471  12.172  12.008  1.00  0.00     0.164 HD
HETATM   11  C   UNK N   1      22.435  12.303  10.669  0.00  0.00     0.159 A 
HETATM   12  F   UNK N   1      21.216  11.950  11.091  0.00  0.00    -0.202 F 
ENDBRANCH   1   5
BRANCH   1  13
HETATM   13  N   UNK N   1      21.226  14.519   8.193  0.00  0.00    -0.264 N 
HETATM   14  C   UNK N   1      20.175  15.040   8.890  0.00  0.00     0.124 A 
HETATM   15  C   UNK N   1      19.951  16.350   8.489  0.00  0.00    -0.032 A 
HETATM   16  C   UNK N   1      20.883  16.639   7.528  0.00  0.00    -0.000 A 
HETATM   17  C   UNK N   1      18.895  17.260   9.010  0.00  0.00     0.050 C 
HETATM   18  C   UNK N   1      21.650  15.517   7.359  0.00  0.00     0.067 A 
HETATM   19  C   UNK N   1      21.099  17.808   6.800  0.00  0.00     0.014 A 
HETATM   20  C   UNK N   1      22.698  15.510   6.430  0.00  0.00     0.032 A 
HETATM   21  C   UNK N   1      22.944  16.671   5.680  0.00  0.00     0.002 A 
HETATM   22  C   UNK N   1      22.146  17.818   5.865  0.00  0.00     0.001 A 
ENDBRANCH   1  13
TORSDOF 4
ENDMDL
MODEL 2
REMARK VINA RESULT:      -6.2      8.004     10.271
REMARK  4 active torsions:
REMARK  status: ('A' for Active; 'I' for Inactive)
REMARK    1  A    between atoms: C_2  and  C_3 
REMARK    2  A    between atoms: C_3  and  N_4 
REMARK    3  A    between atoms: N_4  and  C_5 
REMARK    4  A    between atoms: N_4  and  N_13 
ROOT
HETATM    1  N   UNK N   1      28.817  17.258   5.714  0.00  0.00    -0.283 N 
ENDROOT
BRANCH   1   2
HETATM    2  C   UNK N   1      28.212  15.963   6.066  0.00  0.00     0.149 C 
BRANCH   2   3
HETATM    3  C   UNK N   1      26.837  15.460   5.740  0.00  0.00     0.017 C 
HETATM    4  C   UNK N   1      26.060  15.343   7.036  0.00  0.00     0.007 C 
ENDBRANCH   2   3
ENDBRANCH   1   2
BRANCH   1   5
HETATM    5  C   UNK N   1      28.124  18.570   5.713  0.00  0.00     0.092 A 
HETATM    6  C   UNK N   1      27.697  19.101   4.477  0.00  0.00     0.051 A 
HETATM    7  C   UNK N   1      27.039  20.322   4.366  0.00  0.00     0.090 A 
HETATM    8  N   UNK N   1      26.784  21.054   5.473  0.00  0.00    -0.372 N 
HETATM    9  C   UNK N   1      27.161  20.614   6.694  0.00  0.00     0.132 A 
ATOM     10  HN  UNK N   1      26.301  21.948   5.385  1.00  0.00     0.164 HD
HETATM   11  C   UNK N   1      27.826  19.392   6.856  0.00  0.00     0.159 A 
HETATM   12  F   UNK N   1      28.134  19.097   8.124  0.00  0.00    -0.202 F 
ENDBRANCH   1   5
BRANCH   1  13
HETATM   13  N   UNK N   1      30.195  17.170   5.354  0.00  0.00    -0.264 N 
HETATM   14  C   UNK N   1      30.715  16.906   4.121  0.00  0.00     0.124 A 
HETATM   15  C   UNK N   1      32.101  16.908   4.187  0.00  0.00    -0.032 A 
HETATM   16  C   UNK N   1      32.439  17.178   5.487  0.00  0.00    -0.000 A 
HETATM   17  C   UNK N   1      33.036  16.662   3.056  0.00  0.00     0.050 C 
HETATM   18  C   UNK N   1      31.271  17.335   6.184  0.00  0.00     0.067 A 
HETATM   19  C   UNK N   1      33.691  17.294   6.091  0.00  0.00     0.014 A 
HETATM   20  C   UNK N   1      31.298  17.623   7.554  0.00  0.00     0.032 A 
HETATM   21  C   UNK N   1      32.541  17.746   8.195  0.00  0.00     0.002 A 
HETATM   22  C   UNK N   1      33.735  17.582   7.464  0.00  0.00     0.001 A 
ENDBRANCH   1  13
TORSDOF 4
ENDMDL
MODEL 3
REMARK VINA RESULT:      -6.1      7.938     10.078
REMARK  4 active torsions:
REMARK  status: ('A' for Active; 'I' for Inactive)
REMARK    1  A    between atoms: C_2  and  C_3 
REMARK    2  A    between atoms: C_3  and  N_4 
REMARK    3  A    between atoms: N_4  and  C_5 
REMARK    4  A    between atoms: N_4  and  N_13 
ROOT
HETATM    1  N   UNK N   1      28.604  17.339   6.048  0.00  0.00    -0.283 N 
ENDROOT
BRANCH   1   2
HETATM    2  C   UNK N   1      27.954  16.020   6.118  0.00  0.00     0.149 C 
BRANCH   2   3
HETATM    3  C   UNK N   1      28.221  14.805   5.281  0.00  0.00     0.017 C 
HETATM    4  C   UNK N   1      27.833  15.125   3.852  0.00  0.00     0.007 C 
ENDBRANCH   2   3
ENDBRANCH   1   2
BRANCH   1   5
HETATM    5  C   UNK N   1      27.936  18.621   5.711  0.00  0.00     0.092 A 
HETATM    6  C   UNK N   1      27.642  18.887   4.357  0.00  0.00     0.051 A 
HETATM    7  C   UNK N   1      27.018  20.058   3.935  0.00  0.00     0.090 A 
HETATM    8  N   UNK N   1      26.668  20.999   4.839  0.00  0.00    -0.372 N 
HETATM    9  C   UNK N   1      26.916  20.818   6.156  0.00  0.00     0.132 A 
ATOM     10  HN  UNK N   1      26.211  21.854   4.524  1.00  0.00     0.164 HD
HETATM   11  C   UNK N   1      27.541  19.657   6.628  0.00  0.00     0.159 A 
HETATM   12  F   UNK N   1      27.718  19.627   7.954  0.00  0.00    -0.202 F 
ENDBRANCH   1   5
BRANCH   1  13
HETATM   13  N   UNK N   1      30.000  17.309   6.343  0.00  0.00    -0.264 N 
HETATM   14  C   UNK N   1      30.590  17.357   7.572  0.00  0.00     0.124 A 
HETATM   15  C   UNK N   1      31.969  17.303   7.432  0.00  0.00    -0.032 A 
HETATM   16  C   UNK N   1      32.232  17.221   6.090  0.00  0.00    -0.000 A 
HETATM   17  C   UNK N   1      32.967  17.331   8.536  0.00  0.00     0.050 C 
HETATM   18  C   UNK N   1      31.026  17.225   5.441  0.00  0.00     0.067 A 
HETATM   19  C   UNK N   1      33.447  17.143   5.410  0.00  0.00     0.014 A 
HETATM   20  C   UNK N   1      30.975  17.150   4.044  0.00  0.00     0.032 A 
HETATM   21  C   UNK N   1      32.179  17.070   3.326  0.00  0.00     0.002 A 
HETATM   22  C   UNK N   1      33.412  17.067   4.008  0.00  0.00     0.001 A 
ENDBRANCH   1  13
TORSDOF 4
ENDMDL
MODEL 4
REMARK VINA RESULT:      -6.1     12.012     15.150
REMARK  4 active torsions:
REMARK  status: ('A' for Active; 'I' for Inactive)
REMARK    1  A    between atoms: C_2  and  C_3 
REMARK    2  A    between atoms: C_3  and  N_4 
REMARK    3  A    between atoms: N_4  and  C_5 
REMARK    4  A    between atoms: N_4  and  N_13 
ROOT
HETATM    1  N   UNK N   1      35.908  13.373  11.329  0.00  0.00    -0.283 N 
ENDROOT
BRANCH   1   2
HETATM    2  C   UNK N   1      37.104  12.688  10.811  0.00  0.00     0.149 C 
BRANCH   2   3
HETATM    3  C   UNK N   1      38.456  13.269  10.522  0.00  0.00     0.017 C 
HETATM    4  C   UNK N   1      38.454  13.777   9.095  0.00  0.00     0.007 C 
ENDBRANCH   2   3
ENDBRANCH   1   2
BRANCH   1   5
HETATM    5  C   UNK N   1      35.185  14.484  10.662  0.00  0.00     0.092 A 
HETATM    6  C   UNK N   1      33.936  14.209  10.066  0.00  0.00     0.051 A 
HETATM    7  C   UNK N   1      33.179  15.178   9.417  0.00  0.00     0.090 A 
HETATM    8  N   UNK N   1      33.633  16.448   9.337  0.00  0.00    -0.372 N 
HETATM    9  C   UNK N   1      34.821  16.793   9.883  0.00  0.00     0.132 A 
ATOM     10  HN  UNK N   1      33.073  17.154   8.860  1.00  0.00     0.164 HD
HETATM   11  C   UNK N   1      35.619  15.852  10.547  0.00  0.00     0.159 A 
HETATM   12  F   UNK N   1      36.764  16.346  11.031  0.00  0.00    -0.202 F 
ENDBRANCH   1   5
BRANCH   1  13
HETATM   13  N   UNK N   1      35.458  12.873  12.588  0.00  0.00    -0.264 N 
HETATM   14  C   UNK N   1      34.600  11.836  12.809  0.00  0.00     0.124 A 
HETATM   15  C   UNK N   1      34.416  11.663  14.174  0.00  0.00    -0.032 A 
HETATM   16  C   UNK N   1      35.176  12.614  14.803  0.00  0.00    -0.000 A 
HETATM   17  C   UNK N   1      33.554  10.638  14.822  0.00  0.00     0.050 C 
HETATM   18  C   UNK N   1      35.803  13.341  13.826  0.00  0.00     0.067 A 
HETATM   19  C   UNK N   1      35.351  12.879  16.161  0.00  0.00     0.014 A 
HETATM   20  C   UNK N   1      36.658  14.396  14.169  0.00  0.00     0.032 A 
HETATM   21  C   UNK N   1      36.857  14.691  15.527  0.00  0.00     0.002 A 
HETATM   22  C   UNK N   1      36.205  13.934  16.521  0.00  0.00     0.001 A 
ENDBRANCH   1  13
TORSDOF 4
ENDMDL
MODEL 5
REMARK VINA RESULT:      -6.0      5.161      8.407
REMARK  4 active torsions:
REMARK  status: ('A' for Active; 'I' for Inactive)
REMARK    1  A    between atoms: C_2  and  C_3 
REMARK    2  A    between atoms: C_3  and  N_4 
REMARK    3  A    between atoms: N_4  and  C_5 
REMARK    4  A    between atoms: N_4  and  N_13 
ROOT
HETATM    1  N   UNK N   1      22.800  18.241   4.551  0.00  0.00    -0.283 N 
ENDROOT
BRANCH   1   2
HETATM    2  C   UNK N   1      22.475  17.895   5.944  0.00  0.00     0.149 C 
BRANCH   2   3
HETATM    3  C   UNK N   1      21.929  16.604   6.478  0.00  0.00     0.017 C 
HETATM    4  C   UNK N   1      20.644  16.908   7.221  0.00  0.00     0.007 C 
ENDBRANCH   2   3
ENDBRANCH   1   2
BRANCH   1   5
HETATM    5  C   UNK N   1      21.881  18.880   3.576  0.00  0.00     0.092 A 
HETATM    6  C   UNK N   1      20.635  18.266   3.329  0.00  0.00     0.051 A 
HETATM    7  C   UNK N   1      19.702  18.784   2.435  0.00  0.00     0.090 A 
HETATM    8  N   UNK N   1      19.974  19.922   1.760  0.00  0.00    -0.372 N 
HETATM    9  C   UNK N   1      21.146  20.570   1.942  0.00  0.00     0.132 A 
ATOM     10  HN  UNK N   1      19.286  20.296   1.106  1.00  0.00     0.164 HD
HETATM   11  C   UNK N   1      22.116  20.088   2.831  0.00  0.00     0.159 A 
HETATM   12  F   UNK N   1      23.221  20.839   2.899  0.00  0.00    -0.202 F 
ENDBRANCH   1   5
BRANCH   1  13
HETATM   13  N   UNK N   1      24.135  17.907   4.172  0.00  0.00    -0.264 N 
HETATM   14  C   UNK N   1      24.555  16.786   3.518  0.00  0.00     0.124 A 
HETATM   15  C   UNK N   1      25.930  16.838   3.336  0.00  0.00    -0.032 A 
HETATM   16  C   UNK N   1      26.362  18.015   3.888  0.00  0.00    -0.000 A 
HETATM   17  C   UNK N   1      26.768  15.807   2.665  0.00  0.00     0.050 C 
HETATM   18  C   UNK N   1      25.260  18.653   4.391  0.00  0.00     0.067 A 
HETATM   19  C   UNK N   1      27.644  18.555   3.976  0.00  0.00     0.014 A 
HETATM   20  C   UNK N   1      25.391  19.896   5.024  0.00  0.00     0.032 A 
HETATM   21  C   UNK N   1      26.667  20.470   5.131  0.00  0.00     0.002 A 
HETATM   22  C   UNK N   1      27.792  19.801   4.607  0.00  0.00     0.001 A 
ENDBRANCH   1  13
TORSDOF 4
ENDMDL
MODEL 6
REMARK VINA RESULT:      -6.0      9.050     11.291
REMARK  4 active torsions:
REMARK  status: ('A' for Active; 'I' for Inactive)
REMARK    1  A    between atoms: C_2  and  C_3 
REMARK    2  A    between atoms: C_3  and  N_4 
REMARK    3  A    between atoms: N_4  and  C_5 
REMARK    4  A    between atoms: N_4  and  N_13 
ROOT
HETATM    1  N   UNK N   1      31.740  17.311   7.662  0.00  0.00    -0.283 N 
ENDROOT
BRANCH   1   2
HETATM    2  C   UNK N   1      32.791  18.193   8.195  0.00  0.00     0.149 C 
BRANCH   2   3
HETATM    3  C   UNK N   1      34.279  18.029   8.098  0.00  0.00     0.017 C 
HETATM    4  C   UNK N   1      34.735  17.179   9.267  0.00  0.00     0.007 C 
ENDBRANCH   2   3
ENDBRANCH   1   2
BRANCH   1   5
HETATM    5  C   UNK N   1      30.279  17.481   7.862  0.00  0.00     0.092 A 
HETATM    6  C   UNK N   1      29.401  16.864   6.946  0.00  0.00     0.051 A 
HETATM    7  C   UNK N   1      28.016  16.961   7.043  0.00  0.00     0.090 A 
HETATM    8  N   UNK N   1      27.459  17.670   8.048  0.00  0.00    -0.372 N 
HETATM    9  C   UNK N   1      28.232  18.291   8.968  0.00  0.00     0.132 A 
ATOM     10  HN  UNK N   1      26.444  17.737   8.114  1.00  0.00     0.164 HD
HETATM   11  C   UNK N   1      29.630  18.222   8.911  0.00  0.00     0.159 A 
HETATM   12  F   UNK N   1      30.254  18.889   9.889  0.00  0.00    -0.202 F 
ENDBRANCH   1   5
BRANCH   1  13
HETATM   13  N   UNK N   1      32.240  16.218   6.893  0.00  0.00    -0.264 N 
HETATM   14  C   UNK N   1      32.501  14.951   7.325  0.00  0.00     0.124 A 
HETATM   15  C   UNK N   1      32.976  14.185   6.270  0.00  0.00    -0.032 A 
HETATM   16  C   UNK N   1      33.008  14.998   5.168  0.00  0.00    -0.000 A 
HETATM   17  C   UNK N   1      33.374  12.752   6.332  0.00  0.00     0.050 C 
HETATM   18  C   UNK N   1      32.558  16.230   5.563  0.00  0.00     0.067 A 
HETATM   19  C   UNK N   1      33.401  14.730   3.858  0.00  0.00     0.014 A 
HETATM   20  C   UNK N   1      32.478  17.281   4.641  0.00  0.00     0.032 A 
HETATM   21  C   UNK N   1      32.866  17.047   3.312  0.00  0.00     0.002 A 
HETATM   22  C   UNK N   1      33.326  15.775   2.922  0.00  0.00     0.001 A 
ENDBRANCH   1  13
TORSDOF 4
ENDMDL
MODEL 7
REMARK VINA RESULT:      -5.9     16.057     18.421
REMARK  4 active torsions:
REMARK  status: ('A' for Active; 'I' for Inactive)
REMARK    1  A    between atoms: C_2  and  C_3 
REMARK    2  A    between atoms: C_3  and  N_4 
REMARK    3  A    between atoms: N_4  and  C_5 
REMARK    4  A    between atoms: N_4  and  N_13 
ROOT
HETATM    1  N   UNK N   1      28.186  24.256  -5.468  0.00  0.00    -0.283 N 
ENDROOT
BRANCH   1   2
HETATM    2  C   UNK N   1      27.356  23.400  -6.331  0.00  0.00     0.149 C 
BRANCH   2   3
HETATM    3  C   UNK N   1      25.876  23.472  -6.565  0.00  0.00     0.017 C 
HETATM    4  C   UNK N   1      25.643  24.163  -7.893  0.00  0.00     0.007 C 
ENDBRANCH   2   3
ENDBRANCH   1   2
BRANCH   1   5
HETATM    5  C   UNK N   1      29.094  23.786  -4.392  0.00  0.00     0.092 A 
HETATM    6  C   UNK N   1      30.461  23.618  -4.696  0.00  0.00     0.051 A 
HETATM    7  C   UNK N   1      31.395  23.182  -3.761  0.00  0.00     0.090 A 
HETATM    8  N   UNK N   1      31.006  22.900  -2.499  0.00  0.00    -0.372 N 
HETATM    9  C   UNK N   1      29.712  23.036  -2.129  0.00  0.00     0.132 A 
ATOM     10  HN  UNK N   1      31.695  22.582  -1.818  1.00  0.00     0.164 HD
HETATM   11  C   UNK N   1      28.736  23.471  -3.035  0.00  0.00     0.159 A 
HETATM   12  F   UNK N   1      27.504  23.553  -2.519  0.00  0.00    -0.202 F 
ENDBRANCH   1   5
BRANCH   1  13
HETATM   13  N   UNK N   1      28.058  25.650  -5.745  0.00  0.00    -0.264 N 
HETATM   14  C   UNK N   1      28.638  26.350  -6.762  0.00  0.00     0.124 A 
HETATM   15  C   UNK N   1      28.264  27.684  -6.685  0.00  0.00    -0.032 A 
HETATM   16  C   UNK N   1      27.437  27.806  -5.600  0.00  0.00    -0.000 A 
HETATM   17  C   UNK N   1      28.686  28.770  -7.611  0.00  0.00     0.050 C 
HETATM   18  C   UNK N   1      27.322  26.562  -5.039  0.00  0.00     0.067 A 
HETATM   19  C   UNK N   1      26.788  28.924  -5.078  0.00  0.00     0.014 A 
HETATM   20  C   UNK N   1      26.530  26.371  -3.900  0.00  0.00     0.032 A 
HETATM   21  C   UNK N   1      25.861  27.475  -3.348  0.00  0.00     0.002 A 
HETATM   22  C   UNK N   1      25.990  28.749  -3.936  0.00  0.00     0.001 A 
ENDBRANCH   1  13
TORSDOF 4
ENDMDL
MODEL 8
REMARK VINA RESULT:      -5.9     12.278     15.067
REMARK  4 active torsions:
REMARK  status: ('A' for Active; 'I' for Inactive)
REMARK    1  A    between atoms: C_2  and  C_3 
REMARK    2  A    between atoms: C_3  and  N_4 
REMARK    3  A    between atoms: N_4  and  C_5 
REMARK    4  A    between atoms: N_4  and  N_13 
ROOT
HETATM    1  N   UNK N   1      36.396  13.802  11.681  0.00  0.00    -0.283 N 
ENDROOT
BRANCH   1   2
HETATM    2  C   UNK N   1      37.616  13.133  11.201  0.00  0.00     0.149 C 
BRANCH   2   3
HETATM    3  C   UNK N   1      37.746  11.782  10.562  0.00  0.00     0.017 C 
HETATM    4  C   UNK N   1      38.860  11.852   9.538  0.00  0.00     0.007 C 
ENDBRANCH   2   3
ENDBRANCH   1   2
BRANCH   1   5
HETATM    5  C   UNK N   1      35.544  14.728  10.894  0.00  0.00     0.092 A 
HETATM    6  C   UNK N   1      35.853  16.104  10.916  0.00  0.00     0.051 A 
HETATM    7  C   UNK N   1      35.118  17.055  10.213  0.00  0.00     0.090 A 
HETATM    8  N   UNK N   1      34.058  16.673   9.469  0.00  0.00    -0.372 N 
HETATM    9  C   UNK N   1      33.697  15.371   9.396  0.00  0.00     0.132 A 
ATOM     10  HN  UNK N   1      33.524  17.374   8.956  1.00  0.00     0.164 HD
HETATM   11  C   UNK N   1      34.406  14.378  10.085  0.00  0.00     0.159 A 
HETATM   12  F   UNK N   1      33.927  13.141   9.914  0.00  0.00    -0.202 F 
ENDBRANCH   1   5
BRANCH   1  13
HETATM   13  N   UNK N   1      36.060  13.485  13.032  0.00  0.00    -0.264 N 
HETATM   14  C   UNK N   1      36.444  14.149  14.160  0.00  0.00     0.124 A 
HETATM   15  C   UNK N   1      35.907  13.525  15.276  0.00  0.00    -0.032 A 
HETATM   16  C   UNK N   1      35.177  12.457  14.825  0.00  0.00    -0.000 A 
HETATM   17  C   UNK N   1      36.092  13.944  16.693  0.00  0.00     0.050 C 
HETATM   18  C   UNK N   1      35.280  12.446  13.460  0.00  0.00     0.067 A 
HETATM   19  C   UNK N   1      34.439  11.505  15.527  0.00  0.00     0.014 A 
HETATM   20  C   UNK N   1      34.632  11.456  12.710  0.00  0.00     0.032 A 
HETATM   21  C   UNK N   1      33.879  10.482  13.384  0.00  0.00     0.002 A 
HETATM   22  C   UNK N   1      33.783  10.506  14.790  0.00  0.00     0.001 A 
ENDBRANCH   1  13
TORSDOF 4
ENDMDL
MODEL 9
REMARK VINA RESULT:      -5.8     13.922     15.960
REMARK  4 active torsions:
REMARK  status: ('A' for Active; 'I' for Inactive)
REMARK    1  A    between atoms: C_2  and  C_3 
REMARK    2  A    between atoms: C_3  and  N_4 
REMARK    3  A    between atoms: N_4  and  C_5 
REMARK    4  A    between atoms: N_4  and  N_13 
ROOT
HETATM    1  N   UNK N   1      34.920  11.810  13.808  0.00  0.00    -0.283 N 
ENDROOT
BRANCH   1   2
HETATM    2  C   UNK N   1      33.899  10.806  13.468  0.00  0.00     0.149 C 
BRANCH   2   3
HETATM    3  C   UNK N   1      33.843   9.904  12.271  0.00  0.00     0.017 C 
HETATM    4  C   UNK N   1      34.894   8.827  12.446  0.00  0.00     0.007 C 
ENDBRANCH   2   3
ENDBRANCH   1   2
BRANCH   1   5
HETATM    5  C   UNK N   1      35.789  12.528  12.842  0.00  0.00     0.092 A 
HETATM    6  C   UNK N   1      35.379  13.800  12.390  0.00  0.00     0.051 A 
HETATM    7  C   UNK N   1      36.120  14.556  11.486  0.00  0.00     0.090 A 
HETATM    8  N   UNK N   1      37.287  14.076  11.003  0.00  0.00    -0.372 N 
HETATM    9  C   UNK N   1      37.748  12.864  11.387  0.00  0.00     0.132 A 
ATOM     10  HN  UNK N   1      37.825  14.634  10.341  1.00  0.00     0.164 HD
HETATM   11  C   UNK N   1      37.038  12.067  12.295  0.00  0.00     0.159 A 
HETATM   12  F   UNK N   1      37.622  10.898  12.575  0.00  0.00    -0.202 F 
ENDBRANCH   1   5
BRANCH   1  13
HETATM   13  N   UNK N   1      35.031  12.068  15.207  0.00  0.00    -0.264 N 
HETATM   14  C   UNK N   1      35.066  13.283  15.826  0.00  0.00     0.124 A 
HETATM   15  C   UNK N   1      35.179  13.107  17.198  0.00  0.00    -0.032 A 
HETATM   16  C   UNK N   1      35.214  11.756  17.426  0.00  0.00    -0.000 A 
HETATM   17  C   UNK N   1      35.249  14.186  18.221  0.00  0.00     0.050 C 
HETATM   18  C   UNK N   1      35.123  11.139  16.207  0.00  0.00     0.067 A 
HETATM   19  C   UNK N   1      35.320  11.043  18.619  0.00  0.00     0.014 A 
HETATM   20  C   UNK N   1      35.133   9.741  16.120  0.00  0.00     0.032 A 
HETATM   21  C   UNK N   1      35.238   8.991  17.302  0.00  0.00     0.002 A 
HETATM   22  C   UNK N   1      35.331   9.641  18.549  0.00  0.00     0.001 A 
ENDBRANCH   1  13
TORSDOF 4
ENDMDL
