MODEL 1
REMARK VINA RESULT:      -7.5      0.000      0.000
REMARK  9 active torsions:
REMARK  status: ('A' for Active; 'I' for Inactive)
REMARK    1  A    between atoms: C_2  and  O_3 
REMARK    2  A    between atoms: O_3  and  C_4 
REMARK    3  A    between atoms: C_7  and  C_10 
REMARK    4  A    between atoms: C_10  and  C_11 
REMARK    5  A    between atoms: C_18  and  C_13 
REMARK    6  A    between atoms: C_19  and  O_28 
REMARK    7  A    between atoms: C_20  and  O_27 
REMARK    8  A    between atoms: C_21  and  O_26 
REMARK    9  A    between atoms: C_22  and  S_24 
ROOT
HETATM    1  C   UNK N   1      27.449  24.973  -7.381  0.00  0.00    -0.032 A 
HETATM    2  C   UNK N   1      28.555  24.755  -6.556  0.00  0.00     0.019 A 
HETATM    3  C   UNK N   1      28.892  23.462  -6.121  0.00  0.00    -0.026 A 
HETATM    4  C   UNK N   1      28.120  22.378  -6.549  0.00  0.00     0.011 A 
HETATM    5  C   UNK N   1      27.001  22.582  -7.355  0.00  0.00     0.025 A 
HETATM    6  C   UNK N   1      26.640  23.870  -7.756  0.00  0.00     0.040 A 
HETATM    7 Cl   UNK N   1      25.166  24.049  -8.701  0.00  0.00    -0.084 Cl
ENDROOT
BRANCH   3   8
HETATM    8  C   UNK N   1      30.001  23.217  -5.123  0.00  0.00     0.187 C 
HETATM    9  C   UNK N   1      29.565  23.475  -3.658  0.00  0.00     0.183 C 
HETATM   10  C   UNK N   1      30.687  23.080  -2.696  0.00  0.00     0.181 C 
HETATM   11  C   UNK N   1      31.231  21.695  -3.028  0.00  0.00     0.188 C 
HETATM   12  C   UNK N   1      31.572  21.685  -4.517  0.00  0.00     0.214 C 
HETATM   13  O   UNK N   1      30.392  21.867  -5.253  0.00  0.00    -0.360 OA
BRANCH   9  14
HETATM   14  O   UNK N   1      29.251  24.823  -3.468  0.00  0.00    -0.390 OA
HETATM   15  H   UNK N   1      28.438  25.345  -3.381  0.00  0.00     0.210 HD
ENDBRANCH   9  14
BRANCH  10  16
HETATM   16  O   UNK N   1      30.217  23.106  -1.382  0.00  0.00    -0.390 OA
HETATM   17  H   UNK N   1      29.293  22.904  -1.165  0.00  0.00     0.210 HD
ENDBRANCH  10  16
BRANCH  11  18
HETATM   18  O   UNK N   1      32.371  21.447  -2.261  0.00  0.00    -0.389 OA
HETATM   19  H   UNK N   1      32.396  20.765  -1.572  0.00  0.00     0.210 HD
ENDBRANCH  11  18
BRANCH  12  20
HETATM   20  S   UNK N   1      32.349  20.117  -5.010  0.00  0.00    -0.139 SA
HETATM   21  C   UNK N   1      31.451  20.088  -6.586  0.00  0.00     0.092 C 
ENDBRANCH  12  20
ENDBRANCH   3   8
BRANCH   1  22
HETATM   22  C   UNK N   1      27.139  26.396  -7.774  0.00  0.00     0.078 C 
BRANCH  22  23
HETATM   23  C   UNK N   1      26.747  27.310  -6.648  0.00  0.00    -0.054 A 
HETATM   24  C   UNK N   1      27.546  28.429  -6.400  0.00  0.00     0.010 A 
HETATM   25  C   UNK N   1      27.334  29.210  -5.263  0.00  0.00     0.037 A 
HETATM   26  C   UNK N   1      26.338  28.863  -4.346  0.00  0.00     0.068 A 
HETATM   27  C   UNK N   1      25.504  27.762  -4.615  0.00  0.00     0.037 A 
HETATM   28  C   UNK N   1      25.704  26.993  -5.763  0.00  0.00     0.010 A 
BRANCH  26  29
HETATM   29  O   UNK N   1      26.239  29.565  -3.195  0.00  0.00    -0.352 OA
BRANCH  29  30
HETATM   30  C   UNK N   1      27.233  30.404  -2.745  0.00  0.00     0.171 C 
HETATM   31  C   UNK N   1      28.050  29.679  -1.692  0.00  0.00     0.034 C 
ENDBRANCH  29  30
ENDBRANCH  26  29
ENDBRANCH  22  23
ENDBRANCH   1  22
TORSDOF 9
ENDMDL
MODEL 2
REMARK VINA RESULT:      -7.1     14.720     17.266
REMARK  9 active torsions:
REMARK  status: ('A' for Active; 'I' for Inactive)
REMARK    1  A    between atoms: C_2  and  O_3 
REMARK    2  A    between atoms: O_3  and  C_4 
REMARK    3  A    between atoms: C_7  and  C_10 
REMARK    4  A    between atoms: C_10  and  C_11 
REMARK    5  A    between atoms: C_18  and  C_13 
REMARK    6  A    between atoms: C_19  and  O_28 
REMARK    7  A    between atoms: C_20  and  O_27 
REMARK    8  A    between atoms: C_21  and  O_26 
REMARK    9  A    between atoms: C_22  and  S_24 
ROOT
HETATM    1  C   UNK N   1      21.390  15.399   6.727  0.00  0.00    -0.032 A 
HETATM    2  C   UNK N   1      22.061  16.060   5.696  0.00  0.00     0.019 A 
HETATM    3  C   UNK N   1      22.010  17.459   5.577  0.00  0.00    -0.026 A 
HETATM    4  C   UNK N   1      21.298  18.196   6.528  0.00  0.00     0.011 A 
HETATM    5  C   UNK N   1      20.605  17.549   7.550  0.00  0.00     0.025 A 
HETATM    6  C   UNK N   1      20.621  16.156   7.647  0.00  0.00     0.040 A 
HETATM    7 Cl   UNK N   1      19.652  15.414   8.916  0.00  0.00    -0.084 Cl
ENDROOT
BRANCH   3   8
HETATM    8  C   UNK N   1      22.615  18.184   4.397  0.00  0.00     0.187 C 
HETATM    9  C   UNK N   1      21.778  19.407   3.944  0.00  0.00     0.183 C 
HETATM   10  C   UNK N   1      22.512  20.170   2.841  0.00  0.00     0.181 C 
HETATM   11  C   UNK N   1      23.967  20.424   3.224  0.00  0.00     0.188 C 
HETATM   12  C   UNK N   1      24.567  19.083   3.644  0.00  0.00     0.214 C 
HETATM   13  O   UNK N   1      23.897  18.626   4.789  0.00  0.00    -0.360 OA
BRANCH   9  14
HETATM   14  O   UNK N   1      20.529  19.000   3.468  0.00  0.00    -0.390 OA
HETATM   15  H   UNK N   1      19.686  18.728   3.863  0.00  0.00     0.210 HD
ENDBRANCH   9  14
BRANCH  10  16
HETATM   16  O   UNK N   1      21.867  21.382   2.590  0.00  0.00    -0.390 OA
HETATM   17  H   UNK N   1      22.219  22.226   2.915  0.00  0.00     0.210 HD
ENDBRANCH  10  16
BRANCH  11  18
HETATM   18  O   UNK N   1      24.652  20.947   2.126  0.00  0.00    -0.389 OA
HETATM   19  H   UNK N   1      24.255  21.005   1.244  0.00  0.00     0.210 HD
ENDBRANCH  11  18
BRANCH  12  20
HETATM   20  S   UNK N   1      26.341  19.236   4.009  0.00  0.00    -0.139 SA
HETATM   21  C   UNK N   1      26.476  17.475   4.426  0.00  0.00     0.092 C 
ENDBRANCH  12  20
ENDBRANCH   3   8
BRANCH   1  22
HETATM   22  C   UNK N   1      21.470  13.892   6.762  0.00  0.00     0.078 C 
BRANCH  22  23
HETATM   23  C   UNK N   1      22.187  13.307   7.945  0.00  0.00    -0.054 A 
HETATM   24  C   UNK N   1      21.436  12.594   8.883  0.00  0.00     0.010 A 
HETATM   25  C   UNK N   1      22.014  12.184  10.085  0.00  0.00     0.037 A 
HETATM   26  C   UNK N   1      23.342  12.506  10.374  0.00  0.00     0.068 A 
HETATM   27  C   UNK N   1      24.113  13.185   9.413  0.00  0.00     0.037 A 
HETATM   28  C   UNK N   1      23.540  13.579   8.203  0.00  0.00     0.010 A 
BRANCH  26  29
HETATM   29  O   UNK N   1      23.836  12.203  11.596  0.00  0.00    -0.352 OA
BRANCH  29  30
HETATM   30  C   UNK N   1      23.039  11.790  12.640  0.00  0.00     0.171 C 
HETATM   31  C   UNK N   1      23.632  12.295  13.942  0.00  0.00     0.034 C 
ENDBRANCH  29  30
ENDBRANCH  26  29
ENDBRANCH  22  23
ENDBRANCH   1  22
TORSDOF 9
ENDMDL
MODEL 3
REMARK VINA RESULT:      -6.9     11.002     13.130
REMARK  9 active torsions:
REMARK  status: ('A' for Active; 'I' for Inactive)
REMARK    1  A    between atoms: C_2  and  O_3 
REMARK    2  A    between atoms: O_3  and  C_4 
REMARK    3  A    between atoms: C_7  and  C_10 
REMARK    4  A    between atoms: C_10  and  C_11 
REMARK    5  A    between atoms: C_18  and  C_13 
REMARK    6  A    between atoms: C_19  and  O_28 
REMARK    7  A    between atoms: C_20  and  O_27 
REMARK    8  A    between atoms: C_21  and  O_26 
REMARK    9  A    between atoms: C_22  and  S_24 
ROOT
HETATM    1  C   UNK N   1      27.825  19.263   5.172  0.00  0.00    -0.032 A 
HETATM    2  C   UNK N   1      28.634  18.126   5.197  0.00  0.00     0.019 A 
HETATM    3  C   UNK N   1      29.164  17.638   6.404  0.00  0.00    -0.026 A 
HETATM    4  C   UNK N   1      28.845  18.291   7.599  0.00  0.00     0.011 A 
HETATM    5  C   UNK N   1      28.057  19.440   7.587  0.00  0.00     0.025 A 
HETATM    6  C   UNK N   1      27.563  19.950   6.384  0.00  0.00     0.040 A 
HETATM    7 Cl   UNK N   1      26.646  21.452   6.449  0.00  0.00    -0.084 Cl
ENDROOT
BRANCH   3   8
HETATM    8  C   UNK N   1      30.148  16.491   6.440  0.00  0.00     0.187 C 
HETATM    9  C   UNK N   1      29.879  15.427   5.346  0.00  0.00     0.183 C 
HETATM   10  C   UNK N   1      30.984  14.370   5.353  0.00  0.00     0.181 C 
HETATM   11  C   UNK N   1      32.364  15.021   5.370  0.00  0.00     0.188 C 
HETATM   12  C   UNK N   1      32.377  16.032   6.514  0.00  0.00     0.214 C 
HETATM   13  O   UNK N   1      31.434  17.036   6.243  0.00  0.00    -0.360 OA
BRANCH   9  14
HETATM   14  O   UNK N   1      28.647  14.803   5.558  0.00  0.00    -0.390 OA
HETATM   15  H   UNK N   1      27.722  14.988   5.330  0.00  0.00     0.210 HD
ENDBRANCH   9  14
BRANCH  10  16
HETATM   16  O   UNK N   1      30.860  13.544   4.235  0.00  0.00    -0.390 OA
HETATM   17  H   UNK N   1      31.527  13.532   3.531  0.00  0.00     0.210 HD
ENDBRANCH  10  16
BRANCH  11  18
HETATM   18  O   UNK N   1      33.338  14.041   5.568  0.00  0.00    -0.389 OA
HETATM   19  H   UNK N   1      34.165  14.218   6.043  0.00  0.00     0.210 HD
ENDBRANCH  11  18
BRANCH  12  20
HETATM   20  S   UNK N   1      34.017  16.789   6.713  0.00  0.00    -0.139 SA
HETATM   21  C   UNK N   1      33.362  18.090   7.794  0.00  0.00     0.092 C 
ENDBRANCH  12  20
ENDBRANCH   3   8
BRANCH   1  22
HETATM   22  C   UNK N   1      27.327  19.738   3.830  0.00  0.00     0.078 C 
BRANCH  22  23
HETATM   23  C   UNK N   1      25.843  19.634   3.613  0.00  0.00    -0.054 A 
HETATM   24  C   UNK N   1      25.213  20.638   2.875  0.00  0.00     0.010 A 
HETATM   25  C   UNK N   1      23.821  20.688   2.795  0.00  0.00     0.037 A 
HETATM   26  C   UNK N   1      23.042  19.748   3.475  0.00  0.00     0.068 A 
HETATM   27  C   UNK N   1      23.675  18.710   4.184  0.00  0.00     0.037 A 
HETATM   28  C   UNK N   1      25.067  18.650   4.248  0.00  0.00     0.010 A 
BRANCH  26  29
HETATM   29  O   UNK N   1      21.699  19.895   3.480  0.00  0.00    -0.352 OA
BRANCH  29  30
HETATM   30  C   UNK N   1      20.930  19.760   2.345  0.00  0.00     0.171 C 
HETATM   31  C   UNK N   1      19.754  18.852   2.652  0.00  0.00     0.034 C 
ENDBRANCH  29  30
ENDBRANCH  26  29
ENDBRANCH  22  23
ENDBRANCH   1  22
TORSDOF 9
ENDMDL
MODEL 4
REMARK VINA RESULT:      -6.8     12.191     14.416
REMARK  9 active torsions:
REMARK  status: ('A' for Active; 'I' for Inactive)
REMARK    1  A    between atoms: C_2  and  O_3 
REMARK    2  A    between atoms: O_3  and  C_4 
REMARK    3  A    between atoms: C_7  and  C_10 
REMARK    4  A    between atoms: C_10  and  C_11 
REMARK    5  A    between atoms: C_18  and  C_13 
REMARK    6  A    between atoms: C_19  and  O_28 
REMARK    7  A    between atoms: C_20  and  O_27 
REMARK    8  A    between atoms: C_21  and  O_26 
REMARK    9  A    between atoms: C_22  and  S_24 
ROOT
HETATM    1  C   UNK N   1      25.836  18.418   4.625  0.00  0.00    -0.032 A 
HETATM    2  C   UNK N   1      26.747  18.096   5.633  0.00  0.00     0.019 A 
HETATM    3  C   UNK N   1      27.764  18.992   6.004  0.00  0.00    -0.026 A 
HETATM    4  C   UNK N   1      27.840  20.235   5.368  0.00  0.00     0.011 A 
HETATM    5  C   UNK N   1      26.952  20.561   4.345  0.00  0.00     0.025 A 
HETATM    6  C   UNK N   1      25.965  19.656   3.947  0.00  0.00     0.040 A 
HETATM    7 Cl   UNK N   1      24.939  20.111   2.591  0.00  0.00    -0.084 Cl
ENDROOT
BRANCH   3   8
HETATM    8  C   UNK N   1      28.841  18.614   6.996  0.00  0.00     0.187 C 
HETATM    9  C   UNK N   1      28.272  18.008   8.304  0.00  0.00     0.183 C 
HETATM   10  C   UNK N   1      29.412  17.525   9.202  0.00  0.00     0.181 C 
HETATM   11  C   UNK N   1      30.409  16.679   8.416  0.00  0.00     0.188 C 
HETATM   12  C   UNK N   1      30.806  17.478   7.176  0.00  0.00     0.214 C 
HETATM   13  O   UNK N   1      29.670  17.658   6.371  0.00  0.00    -0.360 OA
BRANCH   9  14
HETATM   14  O   UNK N   1      27.512  18.954   8.996  0.00  0.00    -0.390 OA
HETATM   15  H   UNK N   1      27.549  19.914   9.134  0.00  0.00     0.210 HD
ENDBRANCH   9  14
BRANCH  10  16
HETATM   16  O   UNK N   1      28.898  16.789  10.270  0.00  0.00    -0.390 OA
HETATM   17  H   UNK N   1      27.960  16.830  10.515  0.00  0.00     0.210 HD
ENDBRANCH  10  16
BRANCH  11  18
HETATM   18  O   UNK N   1      31.526  16.418   9.211  0.00  0.00    -0.389 OA
HETATM   19  H   UNK N   1      32.312  15.964   8.870  0.00  0.00     0.210 HD
ENDBRANCH  11  18
BRANCH  12  20
HETATM   20  S   UNK N   1      32.089  16.619   6.217  0.00  0.00    -0.139 SA
HETATM   21  C   UNK N   1      31.363  17.150   4.641  0.00  0.00     0.092 C 
ENDBRANCH  12  20
ENDBRANCH   3   8
BRANCH   1  22
HETATM   22  C   UNK N   1      24.796  17.385   4.266  0.00  0.00     0.078 C 
BRANCH  22  23
HETATM   23  C   UNK N   1      23.637  17.273   5.216  0.00  0.00    -0.054 A 
HETATM   24  C   UNK N   1      23.450  16.062   5.888  0.00  0.00     0.010 A 
HETATM   25  C   UNK N   1      22.296  15.843   6.640  0.00  0.00     0.037 A 
HETATM   26  C   UNK N   1      21.302  16.823   6.707  0.00  0.00     0.068 A 
HETATM   27  C   UNK N   1      21.507  18.060   6.068  0.00  0.00     0.037 A 
HETATM   28  C   UNK N   1      22.670  18.285   5.331  0.00  0.00     0.010 A 
BRANCH  26  29
HETATM   29  O   UNK N   1      20.144  16.534   7.341  0.00  0.00    -0.352 OA
BRANCH  29  30
HETATM   30  C   UNK N   1      20.008  16.594   8.709  0.00  0.00     0.171 C 
HETATM   31  C   UNK N   1      19.405  17.934   9.087  0.00  0.00     0.034 C 
ENDBRANCH  29  30
ENDBRANCH  26  29
ENDBRANCH  22  23
ENDBRANCH   1  22
TORSDOF 9
ENDMDL
MODEL 5
REMARK VINA RESULT:      -6.8     12.230     15.094
REMARK  9 active torsions:
REMARK  status: ('A' for Active; 'I' for Inactive)
REMARK    1  A    between atoms: C_2  and  O_3 
REMARK    2  A    between atoms: O_3  and  C_4 
REMARK    3  A    between atoms: C_7  and  C_10 
REMARK    4  A    between atoms: C_10  and  C_11 
REMARK    5  A    between atoms: C_18  and  C_13 
REMARK    6  A    between atoms: C_19  and  O_28 
REMARK    7  A    between atoms: C_20  and  O_27 
REMARK    8  A    between atoms: C_21  and  O_26 
REMARK    9  A    between atoms: C_22  and  S_24 
ROOT
HETATM    1  C   UNK N   1      26.055  17.826   3.943  0.00  0.00    -0.032 A 
HETATM    2  C   UNK N   1      24.677  17.923   3.742  0.00  0.00     0.019 A 
HETATM    3  C   UNK N   1      24.026  19.168   3.760  0.00  0.00    -0.026 A 
HETATM    4  C   UNK N   1      24.784  20.327   3.954  0.00  0.00     0.011 A 
HETATM    5  C   UNK N   1      26.157  20.245   4.177  0.00  0.00     0.025 A 
HETATM    6  C   UNK N   1      26.799  19.005   4.200  0.00  0.00     0.040 A 
HETATM    7 Cl   UNK N   1      28.519  18.983   4.573  0.00  0.00    -0.084 Cl
ENDROOT
BRANCH   3   8
HETATM    8  C   UNK N   1      22.521  19.286   3.679  0.00  0.00     0.187 C 
HETATM    9  C   UNK N   1      22.048  20.216   2.533  0.00  0.00     0.183 C 
HETATM   10  C   UNK N   1      20.523  20.184   2.421  0.00  0.00     0.181 C 
HETATM   11  C   UNK N   1      20.004  18.749   2.415  0.00  0.00     0.188 C 
HETATM   12  C   UNK N   1      20.617  18.038   3.620  0.00  0.00     0.214 C 
HETATM   13  O   UNK N   1      22.010  17.989   3.456  0.00  0.00    -0.360 OA
BRANCH   9  14
HETATM   14  O   UNK N   1      22.464  21.530   2.762  0.00  0.00    -0.390 OA
HETATM   15  H   UNK N   1      23.068  21.974   3.378  0.00  0.00     0.210 HD
ENDBRANCH   9  14
BRANCH  10  16
HETATM   16  O   UNK N   1      20.117  20.843   1.261  0.00  0.00    -0.390 OA
HETATM   17  H   UNK N   1      19.839  20.358   0.468  0.00  0.00     0.210 HD
ENDBRANCH  10  16
BRANCH  11  18
HETATM   18  O   UNK N   1      18.611  18.758   2.506  0.00  0.00    -0.389 OA
HETATM   19  H   UNK N   1      18.135  19.309   3.147  0.00  0.00     0.210 HD
ENDBRANCH  11  18
BRANCH  12  20
HETATM   20  S   UNK N   1      19.974  16.347   3.790  0.00  0.00    -0.139 SA
HETATM   21  C   UNK N   1      20.589  15.874   2.149  0.00  0.00     0.092 C 
ENDBRANCH  12  20
ENDBRANCH   3   8
BRANCH   1  22
HETATM   22  C   UNK N   1      26.668  16.447   3.941  0.00  0.00     0.078 C 
BRANCH  22  23
HETATM   23  C   UNK N   1      26.301  15.573   5.107  0.00  0.00    -0.054 A 
HETATM   24  C   UNK N   1      25.578  14.404   4.852  0.00  0.00     0.010 A 
HETATM   25  C   UNK N   1      25.060  13.651   5.906  0.00  0.00     0.037 A 
HETATM   26  C   UNK N   1      25.235  14.073   7.226  0.00  0.00     0.068 A 
HETATM   27  C   UNK N   1      26.000  15.225   7.488  0.00  0.00     0.037 A 
HETATM   28  C   UNK N   1      26.534  15.967   6.434  0.00  0.00     0.010 A 
BRANCH  26  29
HETATM   29  O   UNK N   1      24.617  13.391   8.216  0.00  0.00    -0.352 OA
BRANCH  29  30
HETATM   30  C   UNK N   1      25.115  13.321   9.497  0.00  0.00     0.171 C 
HETATM   31  C   UNK N   1      24.427  12.186  10.233  0.00  0.00     0.034 C 
ENDBRANCH  29  30
ENDBRANCH  26  29
ENDBRANCH  22  23
ENDBRANCH   1  22
TORSDOF 9
ENDMDL
MODEL 6
REMARK VINA RESULT:      -6.7     11.317     14.235
REMARK  9 active torsions:
REMARK  status: ('A' for Active; 'I' for Inactive)
REMARK    1  A    between atoms: C_2  and  O_3 
REMARK    2  A    between atoms: O_3  and  C_4 
REMARK    3  A    between atoms: C_7  and  C_10 
REMARK    4  A    between atoms: C_10  and  C_11 
REMARK    5  A    between atoms: C_18  and  C_13 
REMARK    6  A    between atoms: C_19  and  O_28 
REMARK    7  A    between atoms: C_20  and  O_27 
REMARK    8  A    between atoms: C_21  and  O_26 
REMARK    9  A    between atoms: C_22  and  S_24 
ROOT
HETATM    1  C   UNK N   1      25.899  18.261   4.438  0.00  0.00    -0.032 A 
HETATM    2  C   UNK N   1      24.521  18.239   4.211  0.00  0.00     0.019 A 
HETATM    3  C   UNK N   1      23.847  19.373   3.730  0.00  0.00    -0.026 A 
HETATM    4  C   UNK N   1      24.579  20.531   3.447  0.00  0.00     0.011 A 
HETATM    5  C   UNK N   1      25.951  20.575   3.689  0.00  0.00     0.025 A 
HETATM    6  C   UNK N   1      26.617  19.462   4.206  0.00  0.00     0.040 A 
HETATM    7 Cl   UNK N   1      28.333  19.629   4.562  0.00  0.00    -0.084 Cl
ENDROOT
BRANCH   3   8
HETATM    8  C   UNK N   1      22.341  19.416   3.603  0.00  0.00     0.187 C 
HETATM    9  C   UNK N   1      21.856  20.322   2.444  0.00  0.00     0.183 C 
HETATM   10  C   UNK N   1      20.338  20.213   2.287  0.00  0.00     0.181 C 
HETATM   11  C   UNK N   1      19.893  18.754   2.265  0.00  0.00     0.188 C 
HETATM   12  C   UNK N   1      20.505  18.073   3.488  0.00  0.00     0.214 C 
HETATM   13  O   UNK N   1      21.903  18.095   3.366  0.00  0.00    -0.360 OA
BRANCH   9  14
HETATM   14  O   UNK N   1      22.198  21.655   2.685  0.00  0.00    -0.390 OA
HETATM   15  H   UNK N   1      22.108  22.276   3.425  0.00  0.00     0.210 HD
ENDBRANCH   9  14
BRANCH  10  16
HETATM   16  O   UNK N   1      19.934  20.853   1.114  0.00  0.00    -0.390 OA
HETATM   17  H   UNK N   1      19.301  21.588   1.125  0.00  0.00     0.210 HD
ENDBRANCH  10  16
BRANCH  11  18
HETATM   18  O   UNK N   1      18.499  18.693   2.315  0.00  0.00    -0.389 OA
HETATM   19  H   UNK N   1      17.945  18.819   1.529  0.00  0.00     0.210 HD
ENDBRANCH  11  18
BRANCH  12  20
HETATM   20  S   UNK N   1      19.944  16.351   3.639  0.00  0.00    -0.139 SA
HETATM   21  C   UNK N   1      21.310  15.743   2.611  0.00  0.00     0.092 C 
ENDBRANCH  12  20
ENDBRANCH   3   8
BRANCH   1  22
HETATM   22  C   UNK N   1      26.538  17.010   4.988  0.00  0.00     0.078 C 
BRANCH  22  23
HETATM   23  C   UNK N   1      26.406  15.783   4.131  0.00  0.00    -0.054 A 
HETATM   24  C   UNK N   1      27.070  15.764   2.902  0.00  0.00     0.010 A 
HETATM   25  C   UNK N   1      26.841  14.732   1.991  0.00  0.00     0.037 A 
HETATM   26  C   UNK N   1      25.923  13.721   2.289  0.00  0.00     0.068 A 
HETATM   27  C   UNK N   1      25.285  13.714   3.544  0.00  0.00     0.037 A 
HETATM   28  C   UNK N   1      25.530  14.737   4.461  0.00  0.00     0.010 A 
BRANCH  26  29
HETATM   29  O   UNK N   1      25.630  12.805   1.339  0.00  0.00    -0.352 OA
BRANCH  29  30
HETATM   30  C   UNK N   1      24.368  12.281   1.172  0.00  0.00     0.171 C 
HETATM   31  C   UNK N   1      23.665  13.034   0.058  0.00  0.00     0.034 C 
ENDBRANCH  29  30
ENDBRANCH  26  29
ENDBRANCH  22  23
ENDBRANCH   1  22
TORSDOF 9
ENDMDL
MODEL 7
REMARK VINA RESULT:      -6.6     13.681     16.649
REMARK  9 active torsions:
REMARK  status: ('A' for Active; 'I' for Inactive)
REMARK    1  A    between atoms: C_2  and  O_3 
REMARK    2  A    between atoms: O_3  and  C_4 
REMARK    3  A    between atoms: C_7  and  C_10 
REMARK    4  A    between atoms: C_10  and  C_11 
REMARK    5  A    between atoms: C_18  and  C_13 
REMARK    6  A    between atoms: C_19  and  O_28 
REMARK    7  A    between atoms: C_20  and  O_27 
REMARK    8  A    between atoms: C_21  and  O_26 
REMARK    9  A    between atoms: C_22  and  S_24 
ROOT
HETATM    1  C   UNK N   1      26.001  15.103   5.662  0.00  0.00    -0.032 A 
HETATM    2  C   UNK N   1      27.106  15.635   6.329  0.00  0.00     0.019 A 
HETATM    3  C   UNK N   1      27.399  17.008   6.267  0.00  0.00    -0.026 A 
HETATM    4  C   UNK N   1      26.548  17.853   5.547  0.00  0.00     0.011 A 
HETATM    5  C   UNK N   1      25.454  17.332   4.858  0.00  0.00     0.025 A 
HETATM    6  C   UNK N   1      25.183  15.963   4.885  0.00  0.00     0.040 A 
HETATM    7 Cl   UNK N   1      23.833  15.376   3.920  0.00  0.00    -0.084 Cl
ENDROOT
BRANCH   3   8
HETATM    8  C   UNK N   1      28.660  17.586   6.868  0.00  0.00     0.187 C 
HETATM    9  C   UNK N   1      28.489  18.000   8.351  0.00  0.00     0.183 C 
HETATM   10  C   UNK N   1      29.831  18.447   8.933  0.00  0.00     0.181 C 
HETATM   11  C   UNK N   1      30.930  17.439   8.613  0.00  0.00     0.188 C 
HETATM   12  C   UNK N   1      30.889  17.184   7.107  0.00  0.00     0.214 C 
HETATM   13  O   UNK N   1      29.658  16.591   6.783  0.00  0.00    -0.360 OA
BRANCH   9  14
HETATM   14  O   UNK N   1      27.568  19.044   8.467  0.00  0.00    -0.390 OA
HETATM   15  H   UNK N   1      26.605  19.119   8.564  0.00  0.00     0.210 HD
ENDBRANCH   9  14
BRANCH  10  16
HETATM   16  O   UNK N   1      29.720  18.609  10.315  0.00  0.00    -0.390 OA
HETATM   17  H   UNK N   1      28.886  18.877  10.733  0.00  0.00     0.210 HD
ENDBRANCH  10  16
BRANCH  11  18
HETATM   18  O   UNK N   1      32.167  17.966   8.988  0.00  0.00    -0.389 OA
HETATM   19  H   UNK N   1      32.788  17.483   9.555  0.00  0.00     0.210 HD
ENDBRANCH  11  18
BRANCH  12  20
HETATM   20  S   UNK N   1      32.239  16.085   6.583  0.00  0.00    -0.139 SA
HETATM   21  C   UNK N   1      32.985  17.380   5.554  0.00  0.00     0.092 C 
ENDBRANCH  12  20
ENDBRANCH   3   8
BRANCH   1  22
HETATM   22  C   UNK N   1      25.779  13.613   5.754  0.00  0.00     0.078 C 
BRANCH  22  23
HETATM   23  C   UNK N   1      24.846  13.162   6.842  0.00  0.00    -0.054 A 
HETATM   24  C   UNK N   1      25.131  13.545   8.155  0.00  0.00     0.010 A 
HETATM   25  C   UNK N   1      24.405  13.009   9.220  0.00  0.00     0.037 A 
HETATM   26  C   UNK N   1      23.404  12.064   8.985  0.00  0.00     0.068 A 
HETATM   27  C   UNK N   1      23.085  11.710   7.661  0.00  0.00     0.037 A 
HETATM   28  C   UNK N   1      23.798  12.260   6.595  0.00  0.00     0.010 A 
BRANCH  26  29
HETATM   29  O   UNK N   1      22.804  11.473  10.042  0.00  0.00    -0.352 OA
BRANCH  29  30
HETATM   30  C   UNK N   1      22.219  12.188  11.063  0.00  0.00     0.171 C 
HETATM   31  C   UNK N   1      20.913  12.779  10.564  0.00  0.00     0.034 C 
ENDBRANCH  29  30
ENDBRANCH  26  29
ENDBRANCH  22  23
ENDBRANCH   1  22
TORSDOF 9
ENDMDL
MODEL 8
REMARK VINA RESULT:      -6.5     11.931     14.141
REMARK  9 active torsions:
REMARK  status: ('A' for Active; 'I' for Inactive)
REMARK    1  A    between atoms: C_2  and  O_3 
REMARK    2  A    between atoms: O_3  and  C_4 
REMARK    3  A    between atoms: C_7  and  C_10 
REMARK    4  A    between atoms: C_10  and  C_11 
REMARK    5  A    between atoms: C_18  and  C_13 
REMARK    6  A    between atoms: C_19  and  O_28 
REMARK    7  A    between atoms: C_20  and  O_27 
REMARK    8  A    between atoms: C_21  and  O_26 
REMARK    9  A    between atoms: C_22  and  S_24 
ROOT
HETATM    1  C   UNK N   1      25.107  18.229   4.120  0.00  0.00    -0.032 A 
HETATM    2  C   UNK N   1      26.183  17.540   4.686  0.00  0.00     0.019 A 
HETATM    3  C   UNK N   1      27.369  18.208   5.035  0.00  0.00    -0.026 A 
HETATM    4  C   UNK N   1      27.454  19.590   4.837  0.00  0.00     0.011 A 
HETATM    5  C   UNK N   1      26.398  20.286   4.254  0.00  0.00     0.025 A 
HETATM    6  C   UNK N   1      25.233  19.619   3.869  0.00  0.00     0.040 A 
HETATM    7 Cl   UNK N   1      23.981  20.557   3.063  0.00  0.00    -0.084 Cl
ENDROOT
BRANCH   3   8
HETATM    8  C   UNK N   1      28.592  17.464   5.522  0.00  0.00     0.187 C 
HETATM    9  C   UNK N   1      29.830  17.674   4.615  0.00  0.00     0.183 C 
HETATM   10  C   UNK N   1      31.059  17.010   5.236  0.00  0.00     0.181 C 
HETATM   11  C   UNK N   1      31.201  17.386   6.707  0.00  0.00     0.188 C 
HETATM   12  C   UNK N   1      29.859  17.106   7.380  0.00  0.00     0.214 C 
HETATM   13  O   UNK N   1      28.886  17.946   6.816  0.00  0.00    -0.360 OA
BRANCH   9  14
HETATM   14  O   UNK N   1      29.607  17.133   3.346  0.00  0.00    -0.390 OA
HETATM   15  H   UNK N   1      29.188  17.431   2.523  0.00  0.00     0.210 HD
ENDBRANCH   9  14
BRANCH  10  16
HETATM   16  O   UNK N   1      32.207  17.383   4.535  0.00  0.00    -0.390 OA
HETATM   17  H   UNK N   1      32.696  18.193   4.749  0.00  0.00     0.210 HD
ENDBRANCH  10  16
BRANCH  11  18
HETATM   18  O   UNK N   1      32.212  16.618   7.288  0.00  0.00    -0.389 OA
HETATM   19  H   UNK N   1      32.857  16.122   6.760  0.00  0.00     0.210 HD
ENDBRANCH  11  18
BRANCH  12  20
HETATM   20  S   UNK N   1      29.940  17.402   9.172  0.00  0.00    -0.139 SA
HETATM   21  C   UNK N   1      28.150  17.679   9.277  0.00  0.00     0.092 C 
ENDBRANCH  12  20
ENDBRANCH   3   8
BRANCH   1  22
HETATM   22  C   UNK N   1      23.885  17.429   3.744  0.00  0.00     0.078 C 
BRANCH  22  23
HETATM   23  C   UNK N   1      22.907  17.176   4.857  0.00  0.00    -0.054 A 
HETATM   24  C   UNK N   1      22.101  18.235   5.280  0.00  0.00     0.010 A 
HETATM   25  C   UNK N   1      21.307  18.108   6.421  0.00  0.00     0.037 A 
HETATM   26  C   UNK N   1      21.333  16.926   7.167  0.00  0.00     0.068 A 
HETATM   27  C   UNK N   1      22.110  15.842   6.719  0.00  0.00     0.037 A 
HETATM   28  C   UNK N   1      22.888  15.965   5.568  0.00  0.00     0.010 A 
BRANCH  26  29
HETATM   29  O   UNK N   1      20.650  16.878   8.332  0.00  0.00    -0.352 OA
BRANCH  29  30
HETATM   30  C   UNK N   1      19.597  17.719   8.616  0.00  0.00     0.171 C 
HETATM   31  C   UNK N   1      18.398  16.886   9.028  0.00  0.00     0.034 C 
ENDBRANCH  29  30
ENDBRANCH  26  29
ENDBRANCH  22  23
ENDBRANCH   1  22
TORSDOF 9
ENDMDL
MODEL 9
REMARK VINA RESULT:      -6.5     15.731     19.102
REMARK  9 active torsions:
REMARK  status: ('A' for Active; 'I' for Inactive)
REMARK    1  A    between atoms: C_2  and  O_3 
REMARK    2  A    between atoms: O_3  and  C_4 
REMARK    3  A    between atoms: C_7  and  C_10 
REMARK    4  A    between atoms: C_10  and  C_11 
REMARK    5  A    between atoms: C_18  and  C_13 
REMARK    6  A    between atoms: C_19  and  O_28 
REMARK    7  A    between atoms: C_20  and  O_27 
REMARK    8  A    between atoms: C_21  and  O_26 
REMARK    9  A    between atoms: C_22  and  S_24 
ROOT
HETATM    1  C   UNK N   1      33.689  15.901   8.923  0.00  0.00    -0.032 A 
HETATM    2  C   UNK N   1      33.739  14.745   9.705  0.00  0.00     0.019 A 
HETATM    3  C   UNK N   1      34.566  14.671  10.839  0.00  0.00    -0.026 A 
HETATM    4  C   UNK N   1      35.326  15.788  11.199  0.00  0.00     0.011 A 
HETATM    5  C   UNK N   1      35.303  16.941  10.416  0.00  0.00     0.025 A 
HETATM    6  C   UNK N   1      34.513  17.003   9.266  0.00  0.00     0.040 A 
HETATM    7 Cl   UNK N   1      34.606  18.463   8.288  0.00  0.00    -0.084 Cl
ENDROOT
BRANCH   3   8
HETATM    8  C   UNK N   1      34.738  13.389  11.622  0.00  0.00     0.187 C 
HETATM    9  C   UNK N   1      35.841  12.469  11.042  0.00  0.00     0.183 C 
HETATM   10  C   UNK N   1      36.055  11.261  11.955  0.00  0.00     0.181 C 
HETATM   11  C   UNK N   1      36.201  11.692  13.410  0.00  0.00     0.188 C 
HETATM   12  C   UNK N   1      35.014  12.596  13.738  0.00  0.00     0.214 C 
HETATM   13  O   UNK N   1      35.088  13.748  12.941  0.00  0.00    -0.360 OA
BRANCH   9  14
HETATM   14  O   UNK N   1      35.489  12.023   9.765  0.00  0.00    -0.390 OA
HETATM   15  H   UNK N   1      34.816  11.431   9.393  0.00  0.00     0.210 HD
ENDBRANCH   9  14
BRANCH  10  16
HETATM   16  O   UNK N   1      37.189  10.554  11.551  0.00  0.00    -0.390 OA
HETATM   17  H   UNK N   1      38.034  10.999  11.378  0.00  0.00     0.210 HD
ENDBRANCH  10  16
BRANCH  11  18
HETATM   18  O   UNK N   1      36.202  10.564  14.232  0.00  0.00    -0.389 OA
HETATM   19  H   UNK N   1      35.513   9.883  14.182  0.00  0.00     0.210 HD
ENDBRANCH  11  18
BRANCH  12  20
HETATM   20  S   UNK N   1      35.011  13.078  15.491  0.00  0.00    -0.139 SA
HETATM   21  C   UNK N   1      36.638  13.868  15.347  0.00  0.00     0.092 C 
ENDBRANCH  12  20
ENDBRANCH   3   8
BRANCH   1  22
HETATM   22  C   UNK N   1      32.800  15.883   7.704  0.00  0.00     0.078 C 
BRANCH  22  23
HETATM   23  C   UNK N   1      31.496  16.617   7.841  0.00  0.00    -0.054 A 
HETATM   24  C   UNK N   1      30.640  16.651   6.736  0.00  0.00     0.010 A 
HETATM   25  C   UNK N   1      29.506  17.463   6.747  0.00  0.00     0.037 A 
HETATM   26  C   UNK N   1      29.228  18.271   7.853  0.00  0.00     0.068 A 
HETATM   27  C   UNK N   1      30.064  18.206   8.984  0.00  0.00     0.037 A 
HETATM   28  C   UNK N   1      31.188  17.380   8.979  0.00  0.00     0.010 A 
BRANCH  26  29
HETATM   29  O   UNK N   1      28.193  19.137   7.784  0.00  0.00    -0.352 OA
BRANCH  29  30
HETATM   30  C   UNK N   1      27.540  19.426   6.607  0.00  0.00     0.171 C 
HETATM   31  C   UNK N   1      27.700  20.905   6.306  0.00  0.00     0.034 C 
ENDBRANCH  29  30
ENDBRANCH  26  29
ENDBRANCH  22  23
ENDBRANCH   1  22
TORSDOF 9
ENDMDL
