MODEL 1
REMARK VINA RESULT:      -7.5      0.000      0.000
REMARK  6 active torsions:
REMARK  status: ('A' for Active; 'I' for Inactive)
REMARK    1  A    between atoms: C_4  and  O_29 
REMARK    2  A    between atoms: C_9  and  O_16 
REMARK    3  A    between atoms: C_10  and  C_11 
REMARK    4  A    between atoms: C_10  and  O_15 
REMARK    5  A    between atoms: C_11  and  C_13 
REMARK    6  A    between atoms: C_13  and  O_14 
ROOT
HETATM    1  C   UNK N   1      35.205  12.567  10.406  0.00  0.00     0.019 C 
HETATM    2  C   UNK N   1      36.104  13.603  11.103  0.00  0.00     0.003 C 
HETATM    3  C   UNK N   1      35.445  14.075  12.400  0.00  0.00     0.048 C 
HETATM    4  C   UNK N   1      35.225  12.871  13.334  0.00  0.00     0.160 C 
HETATM    5  C   UNK N   1      36.510  12.047  13.681  0.00  0.00     0.147 C 
HETATM    6  C   UNK N   1      37.438  11.849  12.434  0.00  0.00     0.037 C 
HETATM    7  C   UNK N   1      37.452  13.030  11.470  0.00  0.00     0.007 C 
HETATM    8  C   UNK N   1      38.289  12.971  10.198  0.00  0.00     0.041 C 
HETATM    9  C   UNK N   1      37.593  13.950   9.238  0.00  0.00     0.161 C 
HETATM   10  C   UNK N   1      36.566  14.706  10.128  0.00  0.00     0.153 C 
HETATM   11  C   UNK N   1      37.497  10.443  11.848  0.00  0.00     0.050 C 
HETATM   12  C   UNK N   1      38.062   9.533  12.947  0.00  0.00     0.201 C 
HETATM   13  C   UNK N   1      37.326   9.718  14.258  0.00  0.00    -0.027 A 
HETATM   14  C   UNK N   1      37.766   9.073  15.350  0.00  0.00     0.061 A 
HETATM   15  C   UNK N   1      37.086   9.234  16.643  0.00  0.00     0.172 A 
HETATM   16  O   UNK N   1      37.463   8.604  17.616  0.00  0.00    -0.289 OA
HETATM   17  C   UNK N   1      35.948  10.156  16.755  0.00  0.00     0.052 A 
HETATM   18  C   UNK N   1      35.497  10.808  15.677  0.00  0.00    -0.006 A 
HETATM   19  C   UNK N   1      36.110  10.651  14.294  0.00  0.00     0.039 A 
HETATM   20  C   UNK N   1      35.031   9.988  13.434  0.00  0.00     0.028 C 
HETATM   21  F   UNK N   1      38.026   8.213  12.543  0.00  0.00    -0.245 F 
HETATM   22  F   UNK N   1      37.264  12.769  14.595  0.00  0.00    -0.238 F 
ENDROOT
BRANCH  10  23
HETATM   23  C   UNK N   1      35.446  15.425   9.392  0.00  0.00     0.187 C 
HETATM   24  O   UNK N   1      35.114  15.042   8.280  0.00  0.00    -0.292 OA
BRANCH  23  25
HETATM   25  C   UNK N   1      34.698  16.564  10.015  0.00  0.00     0.245 C 
BRANCH  25  26
HETATM   26  O   UNK N   1      35.526  17.683  10.104  0.00  0.00    -0.393 OA
HETATM   27  H   UNK N   1      35.643  18.265  10.871  0.00  0.00     0.209 HD
ENDBRANCH  25  26
ENDBRANCH  23  25
ENDBRANCH  10  23
BRANCH  10  28
HETATM   28  O   UNK N   1      37.275  15.682  10.844  0.00  0.00    -0.378 OA
HETATM   29  H   UNK N   1      37.625  16.562  11.053  0.00  0.00     0.211 HD
ENDBRANCH  10  28
BRANCH   9  30
HETATM   30  O   UNK N   1      36.962  13.186   8.250  0.00  0.00    -0.392 OA
HETATM   31  H   UNK N   1      36.817  12.949   7.321  0.00  0.00     0.210 HD
ENDBRANCH   9  30
BRANCH   4  32
HETATM   32  O   UNK N   1      34.559  13.286  14.489  0.00  0.00    -0.392 OA
HETATM   33  H   UNK N   1      33.761  13.834  14.419  0.00  0.00     0.210 HD
ENDBRANCH   4  32
TORSDOF 6
ENDMDL
MODEL 2
REMARK VINA RESULT:      -7.2     23.951     25.677
REMARK  6 active torsions:
REMARK  status: ('A' for Active; 'I' for Inactive)
REMARK    1  A    between atoms: C_4  and  O_29 
REMARK    2  A    between atoms: C_9  and  O_16 
REMARK    3  A    between atoms: C_10  and  C_11 
REMARK    4  A    between atoms: C_10  and  O_15 
REMARK    5  A    between atoms: C_11  and  C_13 
REMARK    6  A    between atoms: C_13  and  O_14 
ROOT
HETATM    1  C   UNK N   1      27.981  23.570  -7.219  0.00  0.00     0.019 C 
HETATM    2  C   UNK N   1      26.451  23.715  -7.296  0.00  0.00     0.003 C 
HETATM    3  C   UNK N   1      25.849  23.626  -5.893  0.00  0.00     0.048 C 
HETATM    4  C   UNK N   1      26.430  24.746  -5.010  0.00  0.00     0.160 C 
HETATM    5  C   UNK N   1      26.241  26.200  -5.558  0.00  0.00     0.147 C 
HETATM    6  C   UNK N   1      26.483  26.283  -7.105  0.00  0.00     0.037 C 
HETATM    7  C   UNK N   1      26.035  25.046  -7.876  0.00  0.00     0.007 C 
HETATM    8  C   UNK N   1      26.232  24.972  -9.385  0.00  0.00     0.041 C 
HETATM    9  C   UNK N   1      26.287  23.465  -9.688  0.00  0.00     0.161 C 
HETATM   10  C   UNK N   1      25.842  22.783  -8.364  0.00  0.00     0.153 C 
HETATM   11  C   UNK N   1      27.757  26.988  -7.555  0.00  0.00     0.050 C 
HETATM   12  C   UNK N   1      27.654  28.437  -7.062  0.00  0.00     0.201 C 
HETATM   13  C   UNK N   1      27.296  28.504  -5.592  0.00  0.00    -0.027 A 
HETATM   14  C   UNK N   1      27.063  29.700  -5.030  0.00  0.00     0.061 A 
HETATM   15  C   UNK N   1      26.703  29.806  -3.610  0.00  0.00     0.172 A 
HETATM   16  O   UNK N   1      26.543  30.901  -3.098  0.00  0.00    -0.289 OA
HETATM   17  C   UNK N   1      26.539  28.585  -2.809  0.00  0.00     0.052 A 
HETATM   18  C   UNK N   1      26.767  27.384  -3.353  0.00  0.00    -0.006 A 
HETATM   19  C   UNK N   1      27.198  27.195  -4.799  0.00  0.00     0.039 A 
HETATM   20  C   UNK N   1      28.616  26.619  -4.739  0.00  0.00     0.028 C 
HETATM   21  F   UNK N   1      28.830  29.115  -7.316  0.00  0.00    -0.245 F 
HETATM   22  F   UNK N   1      24.918  26.574  -5.369  0.00  0.00    -0.238 F 
ENDROOT
BRANCH  10  23
HETATM   23  C   UNK N   1      26.201  21.313  -8.215  0.00  0.00     0.187 C 
HETATM   24  O   UNK N   1      27.358  20.957  -8.387  0.00  0.00    -0.292 OA
BRANCH  23  25
HETATM   25  C   UNK N   1      25.184  20.290  -7.813  0.00  0.00     0.245 C 
BRANCH  25  26
HETATM   26  O   UNK N   1      24.501  20.722  -6.675  0.00  0.00    -0.393 OA
HETATM   27  H   UNK N   1      24.383  20.237  -5.844  0.00  0.00     0.209 HD
ENDBRANCH  25  26
ENDBRANCH  23  25
ENDBRANCH  10  23
BRANCH  10  28
HETATM   28  O   UNK N   1      24.444  22.869  -8.302  0.00  0.00    -0.378 OA
HETATM   29  H   UNK N   1      23.564  22.877  -7.893  0.00  0.00     0.211 HD
ENDBRANCH  10  28
BRANCH   9  30
HETATM   30  O   UNK N   1      27.613  23.155 -10.014  0.00  0.00    -0.392 OA
HETATM   31  H   UNK N   1      28.567  23.302  -9.925  0.00  0.00     0.210 HD
ENDBRANCH   9  30
BRANCH   4  32
HETATM   32  O   UNK N   1      25.938  24.625  -3.710  0.00  0.00    -0.392 OA
HETATM   33  H   UNK N   1      25.060  24.240  -3.556  0.00  0.00     0.210 HD
ENDBRANCH   4  32
TORSDOF 6
ENDMDL
MODEL 3
REMARK VINA RESULT:      -7.0      4.430      8.992
REMARK  6 active torsions:
REMARK  status: ('A' for Active; 'I' for Inactive)
REMARK    1  A    between atoms: C_4  and  O_29 
REMARK    2  A    between atoms: C_9  and  O_16 
REMARK    3  A    between atoms: C_10  and  C_11 
REMARK    4  A    between atoms: C_10  and  O_15 
REMARK    5  A    between atoms: C_11  and  C_13 
REMARK    6  A    between atoms: C_13  and  O_14 
ROOT
HETATM    1  C   UNK N   1      34.382  13.058   9.446  0.00  0.00     0.019 C 
HETATM    2  C   UNK N   1      35.448  14.157   9.304  0.00  0.00     0.003 C 
HETATM    3  C   UNK N   1      36.287  13.909   8.049  0.00  0.00     0.048 C 
HETATM    4  C   UNK N   1      35.374  13.912   6.810  0.00  0.00     0.160 C 
HETATM    5  C   UNK N   1      34.520  15.208   6.607  0.00  0.00     0.147 C 
HETATM    6  C   UNK N   1      33.928  15.741   7.957  0.00  0.00     0.037 C 
HETATM    7  C   UNK N   1      34.835  15.530   9.165  0.00  0.00     0.007 C 
HETATM    8  C   UNK N   1      34.380  15.973  10.550  0.00  0.00     0.041 C 
HETATM    9  C   UNK N   1      35.171  15.075  11.516  0.00  0.00     0.161 C 
HETATM   10  C   UNK N   1      36.227  14.371  10.618  0.00  0.00     0.153 C 
HETATM   11  C   UNK N   1      32.424  15.576   8.150  0.00  0.00     0.050 C 
HETATM   12  C   UNK N   1      31.748  16.389   7.040  0.00  0.00     0.201 C 
HETATM   13  C   UNK N   1      32.322  16.059   5.677  0.00  0.00    -0.027 A 
HETATM   14  C   UNK N   1      31.913  16.762   4.609  0.00  0.00     0.061 A 
HETATM   15  C   UNK N   1      32.452  16.480   3.272  0.00  0.00     0.172 A 
HETATM   16  O   UNK N   1      32.036  17.089   2.302  0.00  0.00    -0.289 OA
HETATM   17  C   UNK N   1      33.495  15.458   3.111  0.00  0.00     0.052 A 
HETATM   18  C   UNK N   1      33.916  14.748   4.165  0.00  0.00    -0.006 A 
HETATM   19  C   UNK N   1      33.365  14.941   5.569  0.00  0.00     0.039 A 
HETATM   20  C   UNK N   1      32.638  13.638   5.914  0.00  0.00     0.028 C 
HETATM   21  F   UNK N   1      30.381  16.188   7.062  0.00  0.00    -0.245 F 
HETATM   22  F   UNK N   1      35.352  16.217   6.144  0.00  0.00    -0.238 F 
ENDROOT
BRANCH  10  23
HETATM   23  C   UNK N   1      36.869  13.119  11.197  0.00  0.00     0.187 C 
HETATM   24  O   UNK N   1      36.348  12.565  12.154  0.00  0.00    -0.292 OA
BRANCH  23  25
HETATM   25  C   UNK N   1      38.098  12.512  10.593  0.00  0.00     0.245 C 
BRANCH  25  26
HETATM   26  O   UNK N   1      39.172  13.393  10.719  0.00  0.00    -0.393 OA
HETATM   27  H   UNK N   1      39.867  13.375  11.396  0.00  0.00     0.209 HD
ENDBRANCH  25  26
ENDBRANCH  23  25
ENDBRANCH  10  23
BRANCH  10  28
HETATM   28  O   UNK N   1      37.261  15.291  10.393  0.00  0.00    -0.378 OA
HETATM   29  H   UNK N   1      38.110  15.738  10.537  0.00  0.00     0.211 HD
ENDBRANCH  10  28
BRANCH   9  30
HETATM   30  O   UNK N   1      34.267  14.162  12.070  0.00  0.00    -0.392 OA
HETATM   31  H   UNK N   1      33.372  13.801  12.163  0.00  0.00     0.210 HD
ENDBRANCH   9  30
BRANCH   4  32
HETATM   32  O   UNK N   1      36.124  13.614   5.671  0.00  0.00    -0.392 OA
HETATM   33  H   UNK N   1      36.219  12.694   5.378  0.00  0.00     0.210 HD
ENDBRANCH   4  32
TORSDOF 6
ENDMDL
MODEL 4
REMARK VINA RESULT:      -6.9      7.339     11.321
REMARK  6 active torsions:
REMARK  status: ('A' for Active; 'I' for Inactive)
REMARK    1  A    between atoms: C_4  and  O_29 
REMARK    2  A    between atoms: C_9  and  O_16 
REMARK    3  A    between atoms: C_10  and  C_11 
REMARK    4  A    between atoms: C_10  and  O_15 
REMARK    5  A    between atoms: C_11  and  C_13 
REMARK    6  A    between atoms: C_13  and  O_14 
ROOT
HETATM    1  C   UNK N   1      31.936  14.991   7.772  0.00  0.00     0.019 C 
HETATM    2  C   UNK N   1      32.702  15.994   6.893  0.00  0.00     0.003 C 
HETATM    3  C   UNK N   1      32.424  15.710   5.416  0.00  0.00     0.048 C 
HETATM    4  C   UNK N   1      30.915  15.833   5.142  0.00  0.00     0.160 C 
HETATM    5  C   UNK N   1      30.270  17.206   5.531  0.00  0.00     0.147 C 
HETATM    6  C   UNK N   1      30.816  17.747   6.897  0.00  0.00     0.037 C 
HETATM    7  C   UNK N   1      32.281  17.420   7.159  0.00  0.00     0.007 C 
HETATM    8  C   UNK N   1      32.943  17.860   8.460  0.00  0.00     0.041 C 
HETATM    9  C   UNK N   1      34.100  16.866   8.653  0.00  0.00     0.161 C 
HETATM   10  C   UNK N   1      34.185  16.098   7.305  0.00  0.00     0.153 C 
HETATM   11  C   UNK N   1      29.849  17.711   8.075  0.00  0.00     0.050 C 
HETATM   12  C   UNK N   1      28.668  18.616   7.701  0.00  0.00     0.201 C 
HETATM   13  C   UNK N   1      28.118  18.277   6.330  0.00  0.00    -0.027 A 
HETATM   14  C   UNK N   1      27.149  19.045   5.808  0.00  0.00     0.061 A 
HETATM   15  C   UNK N   1      26.596  18.757   4.478  0.00  0.00     0.172 A 
HETATM   16  O   UNK N   1      25.682  19.431   4.035  0.00  0.00    -0.289 OA
HETATM   17  C   UNK N   1      27.150  17.651   3.686  0.00  0.00     0.052 A 
HETATM   18  C   UNK N   1      28.117  16.876   4.190  0.00  0.00    -0.006 A 
HETATM   19  C   UNK N   1      28.700  17.074   5.580  0.00  0.00     0.039 A 
HETATM   20  C   UNK N   1      28.301  15.831   6.381  0.00  0.00     0.028 C 
HETATM   21  F   UNK N   1      27.679  18.537   8.663  0.00  0.00    -0.245 F 
HETATM   22  F   UNK N   1      30.639  18.149   4.584  0.00  0.00    -0.238 F 
ENDROOT
BRANCH  10  23
HETATM   23  C   UNK N   1      34.939  14.776   7.334  0.00  0.00     0.187 C 
HETATM   24  O   UNK N   1      35.021  14.156   8.383  0.00  0.00    -0.292 OA
BRANCH  23  25
HETATM   25  C   UNK N   1      35.542  14.186   6.096  0.00  0.00     0.245 C 
BRANCH  25  26
HETATM   26  O   UNK N   1      36.671  14.915   5.724  0.00  0.00    -0.393 OA
HETATM   27  H   UNK N   1      37.023  15.032   4.828  0.00  0.00     0.209 HD
ENDBRANCH  25  26
ENDBRANCH  23  25
ENDBRANCH  10  23
BRANCH  10  28
HETATM   28  O   UNK N   1      34.856  16.929   6.395  0.00  0.00    -0.378 OA
HETATM   29  H   UNK N   1      35.032  17.727   5.873  0.00  0.00     0.211 HD
ENDBRANCH  10  28
BRANCH   9  30
HETATM   30  O   UNK N   1      33.750  16.021   9.713  0.00  0.00    -0.392 OA
HETATM   31  H   UNK N   1      33.833  15.186  10.198  0.00  0.00     0.210 HD
ENDBRANCH   9  30
BRANCH   4  32
HETATM   32  O   UNK N   1      30.648  15.504   3.812  0.00  0.00    -0.392 OA
HETATM   33  H   UNK N   1      30.541  14.575   3.553  0.00  0.00     0.210 HD
ENDBRANCH   4  32
TORSDOF 6
ENDMDL
MODEL 5
REMARK VINA RESULT:      -6.9      2.086      3.586
REMARK  6 active torsions:
REMARK  status: ('A' for Active; 'I' for Inactive)
REMARK    1  A    between atoms: C_4  and  O_29 
REMARK    2  A    between atoms: C_9  and  O_16 
REMARK    3  A    between atoms: C_10  and  C_11 
REMARK    4  A    between atoms: C_10  and  O_15 
REMARK    5  A    between atoms: C_11  and  C_13 
REMARK    6  A    between atoms: C_13  and  O_14 
ROOT
HETATM    1  C   UNK N   1      37.082  12.906  11.041  0.00  0.00     0.019 C 
HETATM    2  C   UNK N   1      35.545  12.874  10.982  0.00  0.00     0.003 C 
HETATM    3  C   UNK N   1      35.046  11.442  11.184  0.00  0.00     0.048 C 
HETATM    4  C   UNK N   1      35.520  10.919  12.551  0.00  0.00     0.160 C 
HETATM    5  C   UNK N   1      35.102  11.787  13.785  0.00  0.00     0.147 C 
HETATM    6  C   UNK N   1      35.237  13.322  13.499  0.00  0.00     0.037 C 
HETATM    7  C   UNK N   1      34.918  13.721  12.063  0.00  0.00     0.007 C 
HETATM    8  C   UNK N   1      35.032  15.178  11.630  0.00  0.00     0.041 C 
HETATM    9  C   UNK N   1      35.274  15.107  10.113  0.00  0.00     0.161 C 
HETATM   10  C   UNK N   1      35.006  13.621   9.744  0.00  0.00     0.153 C 
HETATM   11  C   UNK N   1      36.374  14.047  14.211  0.00  0.00     0.050 C 
HETATM   12  C   UNK N   1      36.103  13.917  15.715  0.00  0.00     0.201 C 
HETATM   13  C   UNK N   1      35.829  12.481  16.111  0.00  0.00    -0.027 A 
HETATM   14  C   UNK N   1      35.468  12.211  17.375  0.00  0.00     0.061 A 
HETATM   15  C   UNK N   1      35.184  10.832  17.797  0.00  0.00     0.172 A 
HETATM   16  O   UNK N   1      34.906  10.592  18.960  0.00  0.00    -0.289 OA
HETATM   17  C   UNK N   1      35.236   9.746  16.811  0.00  0.00     0.052 A 
HETATM   18  C   UNK N   1      35.593   9.997  15.545  0.00  0.00    -0.006 A 
HETATM   19  C   UNK N   1      35.959  11.386  15.046  0.00  0.00     0.039 A 
HETATM   20  C   UNK N   1      37.443  11.318  14.675  0.00  0.00     0.028 C 
HETATM   21  F   UNK N   1      37.159  14.436  16.439  0.00  0.00    -0.245 F 
HETATM   22  F   UNK N   1      33.755  11.574  14.037  0.00  0.00    -0.238 F 
ENDROOT
BRANCH  10  23
HETATM   23  C   UNK N   1      35.571  13.150   8.412  0.00  0.00     0.187 C 
HETATM   24  O   UNK N   1      36.399  13.838   7.834  0.00  0.00    -0.292 OA
BRANCH  23  25
HETATM   25  C   UNK N   1      35.179  11.836   7.810  0.00  0.00     0.245 C 
BRANCH  25  26
HETATM   26  O   UNK N   1      33.844  11.878   7.408  0.00  0.00    -0.393 OA
HETATM   27  H   UNK N   1      33.245  11.125   7.286  0.00  0.00     0.209 HD
ENDBRANCH  25  26
ENDBRANCH  23  25
ENDBRANCH  10  23
BRANCH  10  28
HETATM   28  O   UNK N   1      33.615  13.453   9.679  0.00  0.00    -0.378 OA
HETATM   29  H   UNK N   1      32.699  13.430   9.999  0.00  0.00     0.211 HD
ENDBRANCH  10  28
BRANCH   9  30
HETATM   30  O   UNK N   1      36.607  15.467   9.888  0.00  0.00    -0.392 OA
HETATM   31  H   UNK N   1      37.355  15.632   9.294  0.00  0.00     0.210 HD
ENDBRANCH   9  30
BRANCH   4  32
HETATM   32  O   UNK N   1      35.128   9.589  12.709  0.00  0.00    -0.392 OA
HETATM   33  H   UNK N   1      34.203   9.375  12.908  0.00  0.00     0.210 HD
ENDBRANCH   4  32
TORSDOF 6
ENDMDL
MODEL 6
REMARK VINA RESULT:      -6.8     13.892     15.805
REMARK  6 active torsions:
REMARK  status: ('A' for Active; 'I' for Inactive)
REMARK    1  A    between atoms: C_4  and  O_29 
REMARK    2  A    between atoms: C_9  and  O_16 
REMARK    3  A    between atoms: C_10  and  C_11 
REMARK    4  A    between atoms: C_10  and  O_15 
REMARK    5  A    between atoms: C_11  and  C_13 
REMARK    6  A    between atoms: C_13  and  O_14 
ROOT
HETATM    1  C   UNK N   1      21.021  14.612   4.816  0.00  0.00     0.019 C 
HETATM    2  C   UNK N   1      21.115  15.882   5.678  0.00  0.00     0.003 C 
HETATM    3  C   UNK N   1      20.154  15.778   6.863  0.00  0.00     0.048 C 
HETATM    4  C   UNK N   1      20.516  14.548   7.715  0.00  0.00     0.160 C 
HETATM    5  C   UNK N   1      21.989  14.508   8.244  0.00  0.00     0.147 C 
HETATM    6  C   UNK N   1      23.018  14.980   7.159  0.00  0.00     0.037 C 
HETATM    7  C   UNK N   1      22.500  16.083   6.244  0.00  0.00     0.007 C 
HETATM    8  C   UNK N   1      23.380  16.625   5.124  0.00  0.00     0.041 C 
HETATM    9  C   UNK N   1      22.385  17.179   4.091  0.00  0.00     0.161 C 
HETATM   10  C   UNK N   1      21.013  17.162   4.822  0.00  0.00     0.153 C 
HETATM   11  C   UNK N   1      23.906  13.900   6.551  0.00  0.00     0.050 C 
HETATM   12  C   UNK N   1      24.739  13.318   7.701  0.00  0.00     0.201 C 
HETATM   13  C   UNK N   1      23.869  12.931   8.880  0.00  0.00    -0.027 A 
HETATM   14  C   UNK N   1      24.454  12.504  10.010  0.00  0.00     0.061 A 
HETATM   15  C   UNK N   1      23.646  12.129  11.179  0.00  0.00     0.172 A 
HETATM   16  O   UNK N   1      24.185  11.695  12.182  0.00  0.00    -0.289 OA
HETATM   17  C   UNK N   1      22.186  12.279  11.130  0.00  0.00     0.052 A 
HETATM   18  C   UNK N   1      21.586  12.704  10.012  0.00  0.00    -0.006 A 
HETATM   19  C   UNK N   1      22.347  13.056   8.744  0.00  0.00     0.039 A 
HETATM   20  C   UNK N   1      21.920  12.020   7.701  0.00  0.00     0.028 C 
HETATM   21  F   UNK N   1      25.480  12.239   7.259  0.00  0.00    -0.245 F 
HETATM   22  F   UNK N   1      22.109  15.413   9.287  0.00  0.00    -0.238 F 
ENDROOT
BRANCH  10  23
HETATM   23  C   UNK N   1      19.780  17.246   3.935  0.00  0.00     0.187 C 
HETATM   24  O   UNK N   1      18.756  16.674   4.275  0.00  0.00    -0.292 OA
BRANCH  23  25
HETATM   25  C   UNK N   1      19.770  18.057   2.675  0.00  0.00     0.245 C 
BRANCH  25  26
HETATM   26  O   UNK N   1      18.484  18.541   2.433  0.00  0.00    -0.393 OA
HETATM   27  H   UNK N   1      18.038  18.612   1.575  0.00  0.00     0.209 HD
ENDBRANCH  25  26
ENDBRANCH  23  25
ENDBRANCH  10  23
BRANCH  10  28
HETATM   28  O   UNK N   1      20.980  18.278   5.672  0.00  0.00    -0.378 OA
HETATM   29  H   UNK N   1      20.608  18.909   6.308  0.00  0.00     0.211 HD
ENDBRANCH  10  28
BRANCH   9  30
HETATM   30  O   UNK N   1      22.400  16.313   2.993  0.00  0.00    -0.392 OA
HETATM   31  H   UNK N   1      22.248  15.443   2.593  0.00  0.00     0.210 HD
ENDBRANCH   9  30
BRANCH   4  32
HETATM   32  O   UNK N   1      19.598  14.409   8.757  0.00  0.00    -0.392 OA
HETATM   33  H   UNK N   1      19.662  14.978   9.540  0.00  0.00     0.210 HD
ENDBRANCH   4  32
TORSDOF 6
ENDMDL
MODEL 7
REMARK VINA RESULT:      -6.8     18.779     22.911
REMARK  6 active torsions:
REMARK  status: ('A' for Active; 'I' for Inactive)
REMARK    1  A    between atoms: C_4  and  O_29 
REMARK    2  A    between atoms: C_9  and  O_16 
REMARK    3  A    between atoms: C_10  and  C_11 
REMARK    4  A    between atoms: C_10  and  O_15 
REMARK    5  A    between atoms: C_11  and  C_13 
REMARK    6  A    between atoms: C_13  and  O_14 
ROOT
HETATM    1  C   UNK N   1      31.903  22.949  -6.082  0.00  0.00     0.019 C 
HETATM    2  C   UNK N   1      31.107  22.169  -5.021  0.00  0.00     0.003 C 
HETATM    3  C   UNK N   1      30.891  23.045  -3.785  0.00  0.00     0.048 C 
HETATM    4  C   UNK N   1      30.117  24.315  -4.182  0.00  0.00     0.160 C 
HETATM    5  C   UNK N   1      28.739  24.070  -4.884  0.00  0.00     0.147 C 
HETATM    6  C   UNK N   1      28.806  22.896  -5.921  0.00  0.00     0.037 C 
HETATM    7  C   UNK N   1      29.742  21.761  -5.522  0.00  0.00     0.007 C 
HETATM    8  C   UNK N   1      29.930  20.563  -6.445  0.00  0.00     0.041 C 
HETATM    9  C   UNK N   1      31.317  20.011  -6.074  0.00  0.00     0.161 C 
HETATM   10  C   UNK N   1      31.705  20.769  -4.774  0.00  0.00     0.153 C 
HETATM   11  C   UNK N   1      28.739  23.287  -7.393  0.00  0.00     0.050 C 
HETATM   12  C   UNK N   1      27.379  23.964  -7.605  0.00  0.00     0.201 C 
HETATM   13  C   UNK N   1      27.128  25.049  -6.578  0.00  0.00    -0.027 A 
HETATM   14  C   UNK N   1      25.937  25.667  -6.559  0.00  0.00     0.061 A 
HETATM   15  C   UNK N   1      25.651  26.717  -5.572  0.00  0.00     0.172 A 
HETATM   16  O   UNK N   1      24.585  27.307  -5.596  0.00  0.00    -0.289 OA
HETATM   17  C   UNK N   1      26.659  27.054  -4.558  0.00  0.00     0.052 A 
HETATM   18  C   UNK N   1      27.852  26.447  -4.561  0.00  0.00    -0.006 A 
HETATM   19  C   UNK N   1      28.244  25.393  -5.584  0.00  0.00     0.039 A 
HETATM   20  C   UNK N   1      29.379  26.010  -6.405  0.00  0.00     0.028 C 
HETATM   21  F   UNK N   1      27.288  24.468  -8.888  0.00  0.00    -0.245 F 
HETATM   22  F   UNK N   1      27.821  23.666  -3.926  0.00  0.00    -0.238 F 
ENDROOT
BRANCH  10  23
HETATM   23  C   UNK N   1      33.181  20.755  -4.406  0.00  0.00     0.187 C 
HETATM   24  O   UNK N   1      33.982  20.224  -5.160  0.00  0.00    -0.292 OA
BRANCH  23  25
HETATM   25  C   UNK N   1      33.690  21.420  -3.164  0.00  0.00     0.245 C 
BRANCH  25  26
HETATM   26  O   UNK N   1      32.996  20.943  -2.052  0.00  0.00    -0.393 OA
HETATM   27  H   UNK N   1      33.364  20.456  -1.297  0.00  0.00     0.209 HD
ENDBRANCH  25  26
ENDBRANCH  23  25
ENDBRANCH  10  23
BRANCH  10  28
HETATM   28  O   UNK N   1      31.015  20.158  -3.715  0.00  0.00    -0.378 OA
HETATM   29  H   UNK N   1      30.624  19.436  -3.199  0.00  0.00     0.211 HD
ENDBRANCH  10  28
BRANCH   9  30
HETATM   30  O   UNK N   1      32.181  20.314  -7.131  0.00  0.00    -0.392 OA
HETATM   31  H   UNK N   1      32.798  20.912  -7.581  0.00  0.00     0.210 HD
ENDBRANCH   9  30
BRANCH   4  32
HETATM   32  O   UNK N   1      29.980  25.150  -3.072  0.00  0.00    -0.392 OA
HETATM   33  H   UNK N   1      30.745  25.647  -2.741  0.00  0.00     0.210 HD
ENDBRANCH   4  32
TORSDOF 6
ENDMDL
MODEL 8
REMARK VINA RESULT:      -6.7     19.335     22.438
REMARK  6 active torsions:
REMARK  status: ('A' for Active; 'I' for Inactive)
REMARK    1  A    between atoms: C_4  and  O_29 
REMARK    2  A    between atoms: C_9  and  O_16 
REMARK    3  A    between atoms: C_10  and  C_11 
REMARK    4  A    between atoms: C_10  and  O_15 
REMARK    5  A    between atoms: C_11  and  C_13 
REMARK    6  A    between atoms: C_13  and  O_14 
ROOT
HETATM    1  C   UNK N   1      26.979  23.991  -4.591  0.00  0.00     0.019 C 
HETATM    2  C   UNK N   1      27.926  25.032  -5.211  0.00  0.00     0.003 C 
HETATM    3  C   UNK N   1      28.976  25.457  -4.183  0.00  0.00     0.048 C 
HETATM    4  C   UNK N   1      29.784  24.227  -3.733  0.00  0.00     0.160 C 
HETATM    5  C   UNK N   1      30.486  23.427  -4.881  0.00  0.00     0.147 C 
HETATM    6  C   UNK N   1      29.568  23.281  -6.143  0.00  0.00     0.037 C 
HETATM    7  C   UNK N   1      28.669  24.484  -6.406  0.00  0.00     0.007 C 
HETATM    8  C   UNK N   1      27.703  24.475  -7.584  0.00  0.00     0.041 C 
HETATM    9  C   UNK N   1      26.594  25.459  -7.175  0.00  0.00     0.161 C 
HETATM   10  C   UNK N   1      27.149  26.168  -5.908  0.00  0.00     0.153 C 
HETATM   11  C   UNK N   1      29.005  21.891  -6.416  0.00  0.00     0.050 C 
HETATM   12  C   UNK N   1      30.209  20.970  -6.657  0.00  0.00     0.201 C 
HETATM   13  C   UNK N   1      31.244  21.106  -5.560  0.00  0.00    -0.027 A 
HETATM   14  C   UNK N   1      32.408  20.447  -5.676  0.00  0.00     0.061 A 
HETATM   15  C   UNK N   1      33.442  20.561  -4.638  0.00  0.00     0.172 A 
HETATM   16  O   UNK N   1      34.474  19.918  -4.729  0.00  0.00    -0.289 OA
HETATM   17  C   UNK N   1      33.225  21.452  -3.491  0.00  0.00     0.052 A 
HETATM   18  C   UNK N   1      32.072  22.118  -3.360  0.00  0.00    -0.006 A 
HETATM   19  C   UNK N   1      30.931  22.007  -4.360  0.00  0.00     0.039 A 
HETATM   20  C   UNK N   1      29.779  21.338  -3.606  0.00  0.00     0.028 C 
HETATM   21  F   UNK N   1      29.792  19.659  -6.783  0.00  0.00    -0.245 F 
HETATM   22  F   UNK N   1      31.592  24.146  -5.308  0.00  0.00    -0.238 F 
ENDROOT
BRANCH  10  23
HETATM   23  C   UNK N   1      26.124  26.877  -5.035  0.00  0.00     0.187 C 
HETATM   24  O   UNK N   1      24.933  26.698  -5.242  0.00  0.00    -0.292 OA
BRANCH  23  25
HETATM   25  C   UNK N   1      26.535  27.751  -3.890  0.00  0.00     0.245 C 
BRANCH  25  26
HETATM   26  O   UNK N   1      25.545  27.741  -2.907  0.00  0.00    -0.393 OA
HETATM   27  H   UNK N   1      25.517  27.189  -2.110  0.00  0.00     0.209 HD
ENDBRANCH  25  26
ENDBRANCH  23  25
ENDBRANCH  10  23
BRANCH  10  28
HETATM   28  O   UNK N   1      28.058  27.144  -6.343  0.00  0.00    -0.378 OA
HETATM   29  H   UNK N   1      28.368  27.931  -6.817  0.00  0.00     0.211 HD
ENDBRANCH  10  28
BRANCH   9  30
HETATM   30  O   UNK N   1      25.452  24.702  -6.890  0.00  0.00    -0.392 OA
HETATM   31  H   UNK N   1      24.592  24.590  -6.455  0.00  0.00     0.210 HD
ENDBRANCH   9  30
BRANCH   4  32
HETATM   32  O   UNK N   1      30.695  24.598  -2.742  0.00  0.00    -0.392 OA
HETATM   33  H   UNK N   1      31.029  23.935  -2.116  0.00  0.00     0.210 HD
ENDBRANCH   4  32
TORSDOF 6
ENDMDL
MODEL 9
REMARK VINA RESULT:      -6.7      8.396     12.033
REMARK  6 active torsions:
REMARK  status: ('A' for Active; 'I' for Inactive)
REMARK    1  A    between atoms: C_4  and  O_29 
REMARK    2  A    between atoms: C_9  and  O_16 
REMARK    3  A    between atoms: C_10  and  C_11 
REMARK    4  A    between atoms: C_10  and  O_15 
REMARK    5  A    between atoms: C_11  and  C_13 
REMARK    6  A    between atoms: C_13  and  O_14 
ROOT
HETATM    1  C   UNK N   1      30.363  14.176   5.395  0.00  0.00     0.019 C 
HETATM    2  C   UNK N   1      31.444  15.169   4.935  0.00  0.00     0.003 C 
HETATM    3  C   UNK N   1      31.004  15.853   3.640  0.00  0.00     0.048 C 
HETATM    4  C   UNK N   1      29.682  16.604   3.877  0.00  0.00     0.160 C 
HETATM    5  C   UNK N   1      29.706  17.659   5.033  0.00  0.00     0.147 C 
HETATM    6  C   UNK N   1      30.493  17.143   6.286  0.00  0.00     0.037 C 
HETATM    7  C   UNK N   1      31.687  16.256   5.954  0.00  0.00     0.007 C 
HETATM    8  C   UNK N   1      32.532  15.659   7.072  0.00  0.00     0.041 C 
HETATM    9  C   UNK N   1      33.160  14.403   6.446  0.00  0.00     0.161 C 
HETATM   10  C   UNK N   1      32.846  14.524   4.928  0.00  0.00     0.153 C 
HETATM   11  C   UNK N   1      29.659  16.795   7.514  0.00  0.00     0.050 C 
HETATM   12  C   UNK N   1      28.963  18.089   7.953  0.00  0.00     0.201 C 
HETATM   13  C   UNK N   1      28.259  18.765   6.795  0.00  0.00    -0.027 A 
HETATM   14  C   UNK N   1      27.689  19.965   6.987  0.00  0.00     0.061 A 
HETATM   15  C   UNK N   1      27.006  20.659   5.887  0.00  0.00     0.172 A 
HETATM   16  O   UNK N   1      26.449  21.725   6.086  0.00  0.00    -0.289 OA
HETATM   17  C   UNK N   1      26.996  20.059   4.546  0.00  0.00     0.052 A 
HETATM   18  C   UNK N   1      27.560  18.864   4.335  0.00  0.00    -0.006 A 
HETATM   19  C   UNK N   1      28.235  18.059   5.434  0.00  0.00     0.039 A 
HETATM   20  C   UNK N   1      27.379  16.802   5.616  0.00  0.00     0.028 C 
HETATM   21  F   UNK N   1      28.081  17.834   8.986  0.00  0.00    -0.245 F 
HETATM   22  F   UNK N   1      30.400  18.778   4.594  0.00  0.00    -0.238 F 
ENDROOT
BRANCH  10  23
HETATM   23  C   UNK N   1      32.962  13.243   4.116  0.00  0.00     0.187 C 
HETATM   24  O   UNK N   1      33.272  12.203   4.678  0.00  0.00    -0.292 OA
BRANCH  23  25
HETATM   25  C   UNK N   1      32.655  13.208   2.650  0.00  0.00     0.245 C 
BRANCH  25  26
HETATM   26  O   UNK N   1      33.554  14.020   1.959  0.00  0.00    -0.393 OA
HETATM   27  H   UNK N   1      34.395  13.752   1.556  0.00  0.00     0.209 HD
ENDBRANCH  25  26
ENDBRANCH  23  25
ENDBRANCH  10  23
BRANCH  10  28
HETATM   28  O   UNK N   1      33.765  15.434   4.385  0.00  0.00    -0.378 OA
HETATM   29  H   UNK N   1      34.608  15.746   4.018  0.00  0.00     0.211 HD
ENDBRANCH  10  28
BRANCH   9  30
HETATM   30  O   UNK N   1      32.531  13.293   7.021  0.00  0.00    -0.392 OA
HETATM   31  H   UNK N   1      32.361  12.707   7.774  0.00  0.00     0.210 HD
ENDBRANCH   9  30
BRANCH   4  32
HETATM   32  O   UNK N   1      29.240  17.170   2.680  0.00  0.00    -0.392 OA
HETATM   33  H   UNK N   1      28.364  17.587   2.634  0.00  0.00     0.210 HD
ENDBRANCH   4  32
TORSDOF 6
ENDMDL
