REMARK  4 active torsions:
REMARK  status: ('A' for Active; 'I' for Inactive)
REMARK    1  A    between atoms: C_6  and  C_7 
REMARK    2  A    between atoms: C_14  and  C_17 
REMARK       I    between atoms: C_17  and  N_19 
REMARK    3  A    between atoms: N_19  and  C_20 
REMARK    4  A    between atoms: C_20  and  C_21 
ROOT
HETATM    1  C   UNK N   1       0.092  -1.822  -0.116  0.00  0.00    -0.011 C 
HETATM    2  C   UNK N   1      -0.382  -1.148   1.191  0.00  0.00     0.019 C 
HETATM    3  C   UNK N   1       0.193   0.284   1.284  0.00  0.00    -0.012 C 
HETATM    4  C   UNK N   1      -0.288   1.104   0.077  0.00  0.00     0.009 C 
HETATM    5  C   UNK N   1       0.182   0.442  -1.230  0.00  0.00    -0.012 C 
HETATM    6  C   UNK N   1      -0.401  -0.983  -1.312  0.00  0.00     0.019 C 
HETATM    7  C   UNK N   1       1.725   0.364  -1.248  0.00  0.00     0.024 C 
HETATM    8  C   UNK N   1       2.221  -0.448  -0.036  0.00  0.00     0.043 C 
HETATM    9  C   UNK N   1       1.734   0.231   1.262  0.00  0.00     0.024 C 
HETATM   10  C   UNK N   1       1.613  -1.838  -0.096  0.00  0.00     0.033 C 
ENDROOT
BRANCH   8  11
HETATM   11  C   UNK N   1       3.709  -0.686  -0.062  0.00  0.00     0.226 C 
HETATM   12  O   UNK N   1       4.419  -0.269   0.846  0.00  0.00    -0.273 OA
HETATM   13  N   UNK N   1       4.231  -1.496  -1.020  0.00  0.00    -0.356 N 
HETATM   14  H   UNK N   1       3.668  -1.754  -1.785  0.00  0.00     0.162 HD
BRANCH  13  15
HETATM   15  C   UNK N   1       5.586  -1.991  -0.949  0.00  0.00     0.161 C 
BRANCH  15  16
HETATM   16  C   UNK N   1       5.618  -3.411  -0.438  0.00  0.00    -0.038 A 
HETATM   17  C   UNK N   1       6.848  -3.991  -0.120  0.00  0.00     0.025 A 
HETATM   18  C   UNK N   1       6.890  -5.293   0.387  0.00  0.00     0.088 A 
HETATM   19  N   UNK N   1       5.738  -5.995   0.568  0.00  0.00    -0.375 N 
HETATM   20  C   UNK N   1       4.526  -5.458   0.262  0.00  0.00     0.088 A 
ATOM     21  HN  UNK N   1       5.785  -6.944   0.940  1.00  0.00     0.164 HD
HETATM   22  C   UNK N   1       4.443  -4.157  -0.242  0.00  0.00     0.025 A 
ENDBRANCH  15  16
ENDBRANCH  13  15
ENDBRANCH   8  11
BRANCH   1  23
HETATM   23  C   UNK N   1      -0.271  -3.282  -0.251  0.00  0.00    -0.049 A 
HETATM   24  C   UNK N   1      -0.887  -3.986   0.795  0.00  0.00     0.009 A 
HETATM   25  C   UNK N   1      -1.018  -5.378   0.722  0.00  0.00     0.024 A 
HETATM   26  C   UNK N   1      -0.533  -6.072  -0.392  0.00  0.00     0.034 A 
HETATM   27  C   UNK N   1       0.049  -5.376  -1.451  0.00  0.00     0.024 A 
HETATM   28 Cl   UNK N   1      -0.614  -7.818  -0.446  0.00  0.00    -0.084 Cl
HETATM   29  C   UNK N   1       0.182  -3.991  -1.381  0.00  0.00     0.009 A 
ENDBRANCH   1  23
TORSDOF 4
