MODEL 1
REMARK VINA RESULT:      -7.7      0.000      0.000
REMARK  11 active torsions:
REMARK  status: ('A' for Active; 'I' for Inactive)
REMARK    1  A    between atoms: C_2  and  N_4 
REMARK    2  A    between atoms: N_4  and  C_5 
REMARK    3  A    between atoms: N_4  and  C_30 
REMARK    4  A    between atoms: C_5  and  C_6 
REMARK    5  A    between atoms: C_6  and  N_7 
REMARK       I    between atoms: N_7  and  C_8 
REMARK    6  A    between atoms: C_8  and  C_10 
REMARK    7  A    between atoms: C_13  and  N_16 
REMARK       I    between atoms: N_16  and  C_17 
REMARK    8  A    between atoms: C_17  and  C_19 
REMARK    9  A    between atoms: C_21  and  O_28 
REMARK   10  A    between atoms: C_22  and  O_26 
REMARK   11  A    between atoms: C_24  and  O_25 
ROOT
HETATM    1  C   UNK N   1      35.904  14.348  11.111  0.00  0.00     0.109 A 
HETATM    2  C   UNK N   1      35.028  13.725  10.205  0.00  0.00     0.088 A 
HETATM    3  S   UNK N   1      34.242  14.967   9.464  0.00  0.00    -0.063 SA
HETATM    4  C   UNK N   1      34.954  16.225  10.258  0.00  0.00     0.151 A 
HETATM    5  N   UNK N   1      35.879  15.727  11.115  0.00  0.00    -0.332 N 
ATOM      6  HN  UNK N   1      36.486  16.304  11.697  1.00  0.00     0.168 HD
ENDROOT
BRANCH   4   7
HETATM    7  N   UNK N   1      35.170  17.448   9.591  0.00  0.00    -0.303 N 
HETATM    8  C   UNK N   1      34.507  18.164   8.652  0.00  0.00     0.260 C 
HETATM    9  O   UNK N   1      35.017  19.231   8.336  0.00  0.00    -0.267 OA
HETATM   10  H   UNK N   1      36.003  17.888   9.878  0.00  0.00     0.171 HD
BRANCH   8  11
HETATM   11  C   UNK N   1      33.270  17.765   7.887  0.00  0.00     0.068 A 
HETATM   12  C   UNK N   1      32.108  17.690   8.671  0.00  0.00     0.059 A 
HETATM   13  C   UNK N   1      30.858  17.372   8.158  0.00  0.00     0.102 A 
HETATM   14  C   UNK N   1      30.740  17.086   6.780  0.00  0.00     0.104 A 
HETATM   15  C   UNK N   1      31.893  17.140   5.973  0.00  0.00     0.077 A 
HETATM   16  C   UNK N   1      33.147  17.479   6.503  0.00  0.00     0.084 A 
BRANCH  13  17
HETATM   17  O   UNK N   1      29.814  17.366   9.028  0.00  0.00    -0.353 OA
HETATM   18  C   UNK N   1      29.017  18.443   9.335  0.00  0.00     0.210 C 
ENDBRANCH  13  17
BRANCH  14  19
HETATM   19  O   UNK N   1      29.534  16.763   6.251  0.00  0.00    -0.353 OA
HETATM   20  C   UNK N   1      28.872  17.542   5.330  0.00  0.00     0.210 C 
ENDBRANCH  14  19
BRANCH  16  21
HETATM   21  O   UNK N   1      34.197  17.498   5.675  0.00  0.00    -0.360 OA
HETATM   22  H   UNK N   1      35.067  17.568   6.014  0.00  0.00     0.217 HD
ENDBRANCH  16  21
ENDBRANCH   8  11
ENDBRANCH   4   7
BRANCH   1  23
HETATM   23  C   UNK N   1      36.961  13.603  11.814  0.00  0.00     0.268 C 
HETATM   24  N   UNK N   1      36.963  13.515  13.172  0.00  0.00    -0.354 N 
HETATM   25  H   UNK N   1      37.755  13.140  13.620  0.00  0.00     0.162 HD
HETATM   26  O   UNK N   1      37.787  12.977  11.174  0.00  0.00    -0.266 OA
BRANCH  24  27
HETATM   27  C   UNK N   1      35.844  13.953  13.984  0.00  0.00     0.153 C 
BRANCH  27  28
HETATM   28  C   UNK N   1      35.113  12.792  14.664  0.00  0.00     0.293 C 
BRANCH  28  29
HETATM   29  N   UNK N   1      35.799  12.273  15.863  0.00  0.00     0.097 N 
BRANCH  29  30
HETATM   30  C   UNK N   1      35.023  12.566  17.096  0.00  0.00     0.215 C 
HETATM   31  C   UNK N   1      35.320  11.543  18.179  0.00  0.00     0.042 C 
HETATM   32  C   UNK N   1      35.380  13.920  17.706  0.00  0.00     0.042 C 
ENDBRANCH  29  30
BRANCH  29  33
HETATM   33  C   UNK N   1      36.056  10.827  15.659  0.00  0.00     0.215 C 
HETATM   34  C   UNK N   1      35.014  10.216  14.727  0.00  0.00     0.042 C 
HETATM   35  C   UNK N   1      37.418  10.523  15.061  0.00  0.00     0.042 C 
ENDBRANCH  29  33
ENDBRANCH  28  29
ENDBRANCH  27  28
ENDBRANCH  24  27
ENDBRANCH   1  23
TORSDOF 11
ENDMDL
MODEL 2
REMARK VINA RESULT:      -7.6      0.899      1.792
REMARK  11 active torsions:
REMARK  status: ('A' for Active; 'I' for Inactive)
REMARK    1  A    between atoms: C_2  and  N_4 
REMARK    2  A    between atoms: N_4  and  C_5 
REMARK    3  A    between atoms: N_4  and  C_30 
REMARK    4  A    between atoms: C_5  and  C_6 
REMARK    5  A    between atoms: C_6  and  N_7 
REMARK       I    between atoms: N_7  and  C_8 
REMARK    6  A    between atoms: C_8  and  C_10 
REMARK    7  A    between atoms: C_13  and  N_16 
REMARK       I    between atoms: N_16  and  C_17 
REMARK    8  A    between atoms: C_17  and  C_19 
REMARK    9  A    between atoms: C_21  and  O_28 
REMARK   10  A    between atoms: C_22  and  O_26 
REMARK   11  A    between atoms: C_24  and  O_25 
ROOT
HETATM    1  C   UNK N   1      36.430  14.161  10.245  0.00  0.00     0.109 A 
HETATM    2  C   UNK N   1      35.847  13.596   9.098  0.00  0.00     0.088 A 
HETATM    3  S   UNK N   1      34.909  14.796   8.474  0.00  0.00    -0.063 SA
HETATM    4  C   UNK N   1      35.206  15.962   9.601  0.00  0.00     0.151 A 
HETATM    5  N   UNK N   1      36.095  15.474  10.502  0.00  0.00    -0.332 N 
ATOM      6  HN  UNK N   1      36.472  16.016  11.279  1.00  0.00     0.168 HD
ENDROOT
BRANCH   4   7
HETATM    7  N   UNK N   1      35.229  17.319   9.223  0.00  0.00    -0.303 N 
HETATM    8  C   UNK N   1      34.419  18.134   8.505  0.00  0.00     0.260 C 
HETATM    9  O   UNK N   1      34.778  19.301   8.418  0.00  0.00    -0.267 OA
HETATM   10  H   UNK N   1      36.025  17.789   9.564  0.00  0.00     0.171 HD
BRANCH   8  11
HETATM   11  C   UNK N   1      33.183  17.758   7.728  0.00  0.00     0.068 A 
HETATM   12  C   UNK N   1      32.019  17.666   8.507  0.00  0.00     0.059 A 
HETATM   13  C   UNK N   1      30.770  17.364   7.983  0.00  0.00     0.102 A 
HETATM   14  C   UNK N   1      30.654  17.114   6.599  0.00  0.00     0.104 A 
HETATM   15  C   UNK N   1      31.808  17.186   5.795  0.00  0.00     0.077 A 
HETATM   16  C   UNK N   1      33.062  17.508   6.337  0.00  0.00     0.084 A 
BRANCH  13  17
HETATM   17  O   UNK N   1      29.724  17.338   8.852  0.00  0.00    -0.353 OA
HETATM   18  C   UNK N   1      28.989  18.425   9.257  0.00  0.00     0.210 C 
ENDBRANCH  13  17
BRANCH  14  19
HETATM   19  O   UNK N   1      29.448  16.807   6.059  0.00  0.00    -0.353 OA
HETATM   20  C   UNK N   1      28.648  17.720   5.412  0.00  0.00     0.210 C 
ENDBRANCH  14  19
BRANCH  16  21
HETATM   21  O   UNK N   1      34.113  17.546   5.511  0.00  0.00    -0.360 OA
HETATM   22  H   UNK N   1      34.970  17.335   5.825  0.00  0.00     0.217 HD
ENDBRANCH  16  21
ENDBRANCH   8  11
ENDBRANCH   4   7
BRANCH   1  23
HETATM   23  C   UNK N   1      37.523  13.497  10.975  0.00  0.00     0.268 C 
HETATM   24  N   UNK N   1      37.284  12.857  12.151  0.00  0.00    -0.354 N 
HETATM   25  H   UNK N   1      38.052  12.552  12.687  0.00  0.00     0.162 HD
HETATM   26  O   UNK N   1      38.632  13.436  10.475  0.00  0.00    -0.266 OA
BRANCH  24  27
HETATM   27  C   UNK N   1      35.944  12.608  12.647  0.00  0.00     0.153 C 
BRANCH  27  28
HETATM   28  C   UNK N   1      35.574  13.504  13.833  0.00  0.00     0.293 C 
BRANCH  28  29
HETATM   29  N   UNK N   1      35.056  12.767  15.001  0.00  0.00     0.097 N 
BRANCH  29  30
HETATM   30  C   UNK N   1      35.021  11.304  14.741  0.00  0.00     0.215 C 
HETATM   31  C   UNK N   1      35.810  10.547  15.796  0.00  0.00     0.042 C 
HETATM   32  C   UNK N   1      33.606  10.731  14.802  0.00  0.00     0.042 C 
ENDBRANCH  29  30
BRANCH  29  33
HETATM   33  C   UNK N   1      35.874  13.136  16.181  0.00  0.00     0.215 C 
HETATM   34  C   UNK N   1      36.845  14.261  15.838  0.00  0.00     0.042 C 
HETATM   35  C   UNK N   1      35.059  13.601  17.374  0.00  0.00     0.042 C 
ENDBRANCH  29  33
ENDBRANCH  28  29
ENDBRANCH  27  28
ENDBRANCH  24  27
ENDBRANCH   1  23
TORSDOF 11
ENDMDL
MODEL 3
REMARK VINA RESULT:      -7.4      1.172      2.392
REMARK  11 active torsions:
REMARK  status: ('A' for Active; 'I' for Inactive)
REMARK    1  A    between atoms: C_2  and  N_4 
REMARK    2  A    between atoms: N_4  and  C_5 
REMARK    3  A    between atoms: N_4  and  C_30 
REMARK    4  A    between atoms: C_5  and  C_6 
REMARK    5  A    between atoms: C_6  and  N_7 
REMARK       I    between atoms: N_7  and  C_8 
REMARK    6  A    between atoms: C_8  and  C_10 
REMARK    7  A    between atoms: C_13  and  N_16 
REMARK       I    between atoms: N_16  and  C_17 
REMARK    8  A    between atoms: C_17  and  C_19 
REMARK    9  A    between atoms: C_21  and  O_28 
REMARK   10  A    between atoms: C_22  and  O_26 
REMARK   11  A    between atoms: C_24  and  O_25 
ROOT
HETATM    1  C   UNK N   1      36.171  14.329  10.549  0.00  0.00     0.109 A 
HETATM    2  C   UNK N   1      35.408  13.711   9.543  0.00  0.00     0.088 A 
HETATM    3  S   UNK N   1      34.507  14.928   8.898  0.00  0.00    -0.063 SA
HETATM    4  C   UNK N   1      35.035  16.166   9.850  0.00  0.00     0.151 A 
HETATM    5  N   UNK N   1      35.981  15.687  10.695  0.00  0.00    -0.332 N 
ATOM      6  HN  UNK N   1      36.494  16.264  11.361  1.00  0.00     0.168 HD
ENDROOT
BRANCH   4   7
HETATM    7  N   UNK N   1      35.127  17.470   9.324  0.00  0.00    -0.303 N 
HETATM    8  C   UNK N   1      34.413  18.205   8.438  0.00  0.00     0.260 C 
HETATM    9  O   UNK N   1      34.805  19.351   8.256  0.00  0.00    -0.267 OA
HETATM   10  H   UNK N   1      35.893  17.968   9.690  0.00  0.00     0.171 HD
BRANCH   8  11
HETATM   11  C   UNK N   1      33.254  17.754   7.584  0.00  0.00     0.068 A 
HETATM   12  C   UNK N   1      33.579  17.550   6.234  0.00  0.00     0.059 A 
HETATM   13  C   UNK N   1      32.668  17.105   5.286  0.00  0.00     0.102 A 
HETATM   14  C   UNK N   1      31.335  16.861   5.684  0.00  0.00     0.104 A 
HETATM   15  C   UNK N   1      30.979  17.070   7.031  0.00  0.00     0.077 A 
HETATM   16  C   UNK N   1      31.915  17.505   7.981  0.00  0.00     0.084 A 
BRANCH  13  17
HETATM   17  O   UNK N   1      33.129  16.924   4.021  0.00  0.00    -0.353 OA
HETATM   18  C   UNK N   1      33.453  15.717   3.448  0.00  0.00     0.210 C 
ENDBRANCH  13  17
BRANCH  14  19
HETATM   19  O   UNK N   1      30.420  16.434   4.780  0.00  0.00    -0.353 OA
HETATM   20  C   UNK N   1      29.344  17.187   4.369  0.00  0.00     0.210 C 
ENDBRANCH  14  19
BRANCH  16  21
HETATM   21  O   UNK N   1      31.497  17.692   9.237  0.00  0.00    -0.360 OA
HETATM   22  H   UNK N   1      31.706  18.483   9.694  0.00  0.00     0.217 HD
ENDBRANCH  16  21
ENDBRANCH   8  11
ENDBRANCH   4   7
BRANCH   1  23
HETATM   23  C   UNK N   1      37.283  13.639  11.222  0.00  0.00     0.268 C 
HETATM   24  N   UNK N   1      37.185  13.272  12.528  0.00  0.00    -0.354 N 
HETATM   25  H   UNK N   1      37.992  12.948  12.989  0.00  0.00     0.162 HD
HETATM   26  O   UNK N   1      38.263  13.305  10.579  0.00  0.00    -0.266 OA
BRANCH  24  27
HETATM   27  C   UNK N   1      35.939  13.341  13.267  0.00  0.00     0.153 C 
BRANCH  27  28
HETATM   28  C   UNK N   1      36.135  13.176  14.777  0.00  0.00     0.293 C 
BRANCH  28  29
HETATM   29  N   UNK N   1      35.777  11.837  15.284  0.00  0.00     0.097 N 
BRANCH  29  30
HETATM   30  C   UNK N   1      35.059  11.928  16.582  0.00  0.00     0.215 C 
HETATM   31  C   UNK N   1      35.696  11.017  17.618  0.00  0.00     0.042 C 
HETATM   32  C   UNK N   1      35.113  13.330  17.185  0.00  0.00     0.042 C 
ENDBRANCH  29  30
BRANCH  29  33
HETATM   33  C   UNK N   1      35.005  11.135  14.231  0.00  0.00     0.215 C 
HETATM   34  C   UNK N   1      35.681   9.824  13.845  0.00  0.00     0.042 C 
HETATM   35  C   UNK N   1      33.580  10.798  14.635  0.00  0.00     0.042 C 
ENDBRANCH  29  33
ENDBRANCH  28  29
ENDBRANCH  27  28
ENDBRANCH  24  27
ENDBRANCH   1  23
TORSDOF 11
ENDMDL
MODEL 4
REMARK VINA RESULT:      -7.4      1.337      2.867
REMARK  11 active torsions:
REMARK  status: ('A' for Active; 'I' for Inactive)
REMARK    1  A    between atoms: C_2  and  N_4 
REMARK    2  A    between atoms: N_4  and  C_5 
REMARK    3  A    between atoms: N_4  and  C_30 
REMARK    4  A    between atoms: C_5  and  C_6 
REMARK    5  A    between atoms: C_6  and  N_7 
REMARK       I    between atoms: N_7  and  C_8 
REMARK    6  A    between atoms: C_8  and  C_10 
REMARK    7  A    between atoms: C_13  and  N_16 
REMARK       I    between atoms: N_16  and  C_17 
REMARK    8  A    between atoms: C_17  and  C_19 
REMARK    9  A    between atoms: C_21  and  O_28 
REMARK   10  A    between atoms: C_22  and  O_26 
REMARK   11  A    between atoms: C_24  and  O_25 
ROOT
HETATM    1  C   UNK N   1      36.515  14.114  10.022  0.00  0.00     0.109 A 
HETATM    2  C   UNK N   1      36.089  13.579   8.794  0.00  0.00     0.088 A 
HETATM    3  S   UNK N   1      35.151  14.757   8.129  0.00  0.00    -0.063 SA
HETATM    4  C   UNK N   1      35.260  15.877   9.334  0.00  0.00     0.151 A 
HETATM    5  N   UNK N   1      36.077  15.392  10.301  0.00  0.00    -0.332 N 
ATOM      6  HN  UNK N   1      36.339  15.911  11.139  1.00  0.00     0.168 HD
ENDROOT
BRANCH   4   7
HETATM    7  N   UNK N   1      35.241  17.251   9.024  0.00  0.00    -0.303 N 
HETATM    8  C   UNK N   1      34.421  18.070   8.322  0.00  0.00     0.260 C 
HETATM    9  O   UNK N   1      34.737  19.253   8.303  0.00  0.00    -0.267 OA
HETATM   10  H   UNK N   1      36.007  17.732   9.411  0.00  0.00     0.171 HD
BRANCH   8  11
HETATM   11  C   UNK N   1      33.223  17.687   7.489  0.00  0.00     0.068 A 
HETATM   12  C   UNK N   1      33.474  17.633   6.110  0.00  0.00     0.059 A 
HETATM   13  C   UNK N   1      32.518  17.272   5.172  0.00  0.00     0.102 A 
HETATM   14  C   UNK N   1      31.214  16.958   5.614  0.00  0.00     0.104 A 
HETATM   15  C   UNK N   1      30.931  17.017   6.992  0.00  0.00     0.077 A 
HETATM   16  C   UNK N   1      31.913  17.369   7.931  0.00  0.00     0.084 A 
BRANCH  13  17
HETATM   17  O   UNK N   1      32.909  17.234   3.870  0.00  0.00    -0.353 OA
HETATM   18  C   UNK N   1      33.243  16.103   3.164  0.00  0.00     0.210 C 
ENDBRANCH  13  17
BRANCH  14  19
HETATM   19  O   UNK N   1      30.255  16.610   4.721  0.00  0.00    -0.353 OA
HETATM   20  C   UNK N   1      28.958  16.313   5.070  0.00  0.00     0.210 C 
ENDBRANCH  14  19
BRANCH  16  21
HETATM   21  O   UNK N   1      31.563  17.414   9.221  0.00  0.00    -0.360 OA
HETATM   22  H   UNK N   1      31.291  18.221   9.610  0.00  0.00     0.217 HD
ENDBRANCH  16  21
ENDBRANCH   8  11
ENDBRANCH   4   7
BRANCH   1  23
HETATM   23  C   UNK N   1      37.563  13.473  10.833  0.00  0.00     0.268 C 
HETATM   24  N   UNK N   1      37.264  12.907  12.033  0.00  0.00    -0.354 N 
HETATM   25  H   UNK N   1      38.003  12.619  12.616  0.00  0.00     0.162 HD
HETATM   26  O   UNK N   1      38.690  13.362  10.384  0.00  0.00    -0.266 OA
BRANCH  24  27
HETATM   27  C   UNK N   1      35.900  12.712  12.486  0.00  0.00     0.153 C 
BRANCH  27  28
HETATM   28  C   UNK N   1      35.557  13.558  13.715  0.00  0.00     0.293 C 
BRANCH  28  29
HETATM   29  N   UNK N   1      35.071  12.773  14.866  0.00  0.00     0.097 N 
BRANCH  29  30
HETATM   30  C   UNK N   1      35.049  11.320  14.554  0.00  0.00     0.215 C 
HETATM   31  C   UNK N   1      35.987  10.555  15.473  0.00  0.00     0.042 C 
HETATM   32  C   UNK N   1      33.671  10.695  14.767  0.00  0.00     0.042 C 
ENDBRANCH  29  30
BRANCH  29  33
HETATM   33  C   UNK N   1      35.908  13.111  16.042  0.00  0.00     0.215 C 
HETATM   34  C   UNK N   1      36.862  14.257  15.719  0.00  0.00     0.042 C 
HETATM   35  C   UNK N   1      35.111  13.528  17.265  0.00  0.00     0.042 C 
ENDBRANCH  29  33
ENDBRANCH  28  29
ENDBRANCH  27  28
ENDBRANCH  24  27
ENDBRANCH   1  23
TORSDOF 11
ENDMDL
MODEL 5
REMARK VINA RESULT:      -7.0      1.863      2.835
REMARK  11 active torsions:
REMARK  status: ('A' for Active; 'I' for Inactive)
REMARK    1  A    between atoms: C_2  and  N_4 
REMARK    2  A    between atoms: N_4  and  C_5 
REMARK    3  A    between atoms: N_4  and  C_30 
REMARK    4  A    between atoms: C_5  and  C_6 
REMARK    5  A    between atoms: C_6  and  N_7 
REMARK       I    between atoms: N_7  and  C_8 
REMARK    6  A    between atoms: C_8  and  C_10 
REMARK    7  A    between atoms: C_13  and  N_16 
REMARK       I    between atoms: N_16  and  C_17 
REMARK    8  A    between atoms: C_17  and  C_19 
REMARK    9  A    between atoms: C_21  and  O_28 
REMARK   10  A    between atoms: C_22  and  O_26 
REMARK   11  A    between atoms: C_24  and  O_25 
ROOT
HETATM    1  C   UNK N   1      36.346  14.095   8.989  0.00  0.00     0.109 A 
HETATM    2  C   UNK N   1      36.319  13.006   8.102  0.00  0.00     0.088 A 
HETATM    3  S   UNK N   1      35.359  13.504   6.861  0.00  0.00    -0.063 SA
HETATM    4  C   UNK N   1      34.981  15.008   7.422  0.00  0.00     0.151 A 
HETATM    5  N   UNK N   1      35.630  15.206   8.596  0.00  0.00    -0.332 N 
ATOM      6  HN  UNK N   1      35.593  16.076   9.127  1.00  0.00     0.168 HD
ENDROOT
BRANCH   4   7
HETATM    7  N   UNK N   1      34.782  16.069   6.517  0.00  0.00    -0.303 N 
HETATM    8  C   UNK N   1      33.808  16.987   6.306  0.00  0.00     0.260 C 
HETATM    9  O   UNK N   1      34.019  17.792   5.408  0.00  0.00    -0.267 OA
HETATM   10  H   UNK N   1      35.532  16.169   5.887  0.00  0.00     0.171 HD
BRANCH   8  11
HETATM   11  C   UNK N   1      32.462  17.078   6.980  0.00  0.00     0.068 A 
HETATM   12  C   UNK N   1      31.375  17.116   6.092  0.00  0.00     0.059 A 
HETATM   13  C   UNK N   1      30.051  17.168   6.505  0.00  0.00     0.102 A 
HETATM   14  C   UNK N   1      29.770  17.206   7.888  0.00  0.00     0.104 A 
HETATM   15  C   UNK N   1      30.842  17.182   8.801  0.00  0.00     0.077 A 
HETATM   16  C   UNK N   1      32.175  17.113   8.369  0.00  0.00     0.084 A 
BRANCH  13  17
HETATM   17  O   UNK N   1      29.099  17.170   5.535  0.00  0.00    -0.353 OA
HETATM   18  C   UNK N   1      28.616  18.281   4.886  0.00  0.00     0.210 C 
ENDBRANCH  13  17
BRANCH  14  19
HETATM   19  O   UNK N   1      28.487  17.266   8.323  0.00  0.00    -0.353 OA
HETATM   20  C   UNK N   1      27.984  18.302   9.075  0.00  0.00     0.210 C 
ENDBRANCH  14  19
BRANCH  16  21
HETATM   21  O   UNK N   1      33.139  17.107   9.296  0.00  0.00    -0.360 OA
HETATM   22  H   UNK N   1      32.947  16.852  10.177  0.00  0.00     0.217 HD
ENDBRANCH  16  21
ENDBRANCH   8  11
ENDBRANCH   4   7
BRANCH   1  23
HETATM   23  C   UNK N   1      37.280  14.154  10.126  0.00  0.00     0.268 C 
HETATM   24  N   UNK N   1      36.821  14.113  11.405  0.00  0.00    -0.354 N 
HETATM   25  H   UNK N   1      37.449  14.301  12.139  0.00  0.00     0.162 HD
HETATM   26  O   UNK N   1      38.481  14.142   9.921  0.00  0.00    -0.266 OA
BRANCH  24  27
HETATM   27  C   UNK N   1      35.442  13.803  11.730  0.00  0.00     0.153 C 
BRANCH  27  28
HETATM   28  C   UNK N   1      35.243  13.464  13.211  0.00  0.00     0.293 C 
BRANCH  28  29
HETATM   29  N   UNK N   1      35.555  12.063  13.552  0.00  0.00     0.097 N 
BRANCH  29  30
HETATM   30  C   UNK N   1      36.498  11.986  14.698  0.00  0.00     0.215 C 
HETATM   31  C   UNK N   1      37.803  11.328  14.284  0.00  0.00     0.042 C 
HETATM   32  C   UNK N   1      36.888  13.364  15.230  0.00  0.00     0.042 C 
ENDBRANCH  29  30
BRANCH  29  33
HETATM   33  C   UNK N   1      34.278  11.349  13.790  0.00  0.00     0.215 C 
HETATM   34  C   UNK N   1      34.034  10.300  12.711  0.00  0.00     0.042 C 
HETATM   35  C   UNK N   1      34.214  10.634  15.127  0.00  0.00     0.042 C 
ENDBRANCH  29  33
ENDBRANCH  28  29
ENDBRANCH  27  28
ENDBRANCH  24  27
ENDBRANCH   1  23
TORSDOF 11
ENDMDL
MODEL 6
REMARK VINA RESULT:      -6.9      1.694      2.187
REMARK  11 active torsions:
REMARK  status: ('A' for Active; 'I' for Inactive)
REMARK    1  A    between atoms: C_2  and  N_4 
REMARK    2  A    between atoms: N_4  and  C_5 
REMARK    3  A    between atoms: N_4  and  C_30 
REMARK    4  A    between atoms: C_5  and  C_6 
REMARK    5  A    between atoms: C_6  and  N_7 
REMARK       I    between atoms: N_7  and  C_8 
REMARK    6  A    between atoms: C_8  and  C_10 
REMARK    7  A    between atoms: C_13  and  N_16 
REMARK       I    between atoms: N_16  and  C_17 
REMARK    8  A    between atoms: C_17  and  C_19 
REMARK    9  A    between atoms: C_21  and  O_28 
REMARK   10  A    between atoms: C_22  and  O_26 
REMARK   11  A    between atoms: C_24  and  O_25 
ROOT
HETATM    1  C   UNK N   1      35.545  14.675  11.831  0.00  0.00     0.109 A 
HETATM    2  C   UNK N   1      35.224  13.809  10.770  0.00  0.00     0.088 A 
HETATM    3  S   UNK N   1      34.658  14.799   9.583  0.00  0.00    -0.063 SA
HETATM    4  C   UNK N   1      34.791  16.241  10.370  0.00  0.00     0.151 A 
HETATM    5  N   UNK N   1      35.330  16.016  11.594  0.00  0.00    -0.332 N 
ATOM      6  HN  UNK N   1      35.552  16.754  12.262  1.00  0.00     0.168 HD
ENDROOT
BRANCH   4   7
HETATM    7  N   UNK N   1      35.095  17.413   9.649  0.00  0.00    -0.303 N 
HETATM    8  C   UNK N   1      34.503  18.112   8.651  0.00  0.00     0.260 C 
HETATM    9  O   UNK N   1      35.081  19.132   8.299  0.00  0.00    -0.267 OA
HETATM   10  H   UNK N   1      35.941  17.823   9.942  0.00  0.00     0.171 HD
BRANCH   8  11
HETATM   11  C   UNK N   1      33.271  17.739   7.865  0.00  0.00     0.068 A 
HETATM   12  C   UNK N   1      32.104  17.636   8.638  0.00  0.00     0.059 A 
HETATM   13  C   UNK N   1      30.858  17.335   8.106  0.00  0.00     0.102 A 
HETATM   14  C   UNK N   1      30.749  17.097   6.718  0.00  0.00     0.104 A 
HETATM   15  C   UNK N   1      31.907  17.179   5.921  0.00  0.00     0.077 A 
HETATM   16  C   UNK N   1      33.158  17.501   6.471  0.00  0.00     0.084 A 
BRANCH  13  17
HETATM   17  O   UNK N   1      29.809  17.298   8.969  0.00  0.00    -0.353 OA
HETATM   18  C   UNK N   1      29.139  18.389   9.468  0.00  0.00     0.210 C 
ENDBRANCH  13  17
BRANCH  14  19
HETATM   19  O   UNK N   1      29.548  16.791   6.170  0.00  0.00    -0.353 OA
HETATM   20  C   UNK N   1      28.720  17.719   5.580  0.00  0.00     0.210 C 
ENDBRANCH  14  19
BRANCH  16  21
HETATM   21  O   UNK N   1      34.213  17.549   5.651  0.00  0.00    -0.360 OA
HETATM   22  H   UNK N   1      34.138  17.946   4.805  0.00  0.00     0.217 HD
ENDBRANCH  16  21
ENDBRANCH   8  11
ENDBRANCH   4   7
BRANCH   1  23
HETATM   23  C   UNK N   1      36.301  14.220  13.009  0.00  0.00     0.268 C 
HETATM   24  N   UNK N   1      36.882  12.991  13.030  0.00  0.00    -0.354 N 
HETATM   25  H   UNK N   1      37.253  12.658  13.879  0.00  0.00     0.162 HD
HETATM   26  O   UNK N   1      36.492  14.987  13.936  0.00  0.00    -0.266 OA
BRANCH  24  27
HETATM   27  C   UNK N   1      36.976  12.152  11.851  0.00  0.00     0.153 C 
BRANCH  27  28
HETATM   28  C   UNK N   1      36.476  10.725  12.096  0.00  0.00     0.293 C 
BRANCH  28  29
HETATM   29  N   UNK N   1      36.069  10.465  13.490  0.00  0.00     0.097 N 
BRANCH  29  30
HETATM   30  C   UNK N   1      34.649  10.033  13.564  0.00  0.00     0.215 C 
HETATM   31  C   UNK N   1      33.868  10.901  14.536  0.00  0.00     0.042 C 
HETATM   32  C   UNK N   1      33.924  10.168  12.226  0.00  0.00     0.042 C 
ENDBRANCH  29  30
BRANCH  29  33
HETATM   33  C   UNK N   1      37.014   9.483  14.073  0.00  0.00     0.215 C 
HETATM   34  C   UNK N   1      37.518   8.516  13.006  0.00  0.00     0.042 C 
HETATM   35  C   UNK N   1      38.237  10.112  14.715  0.00  0.00     0.042 C 
ENDBRANCH  29  33
ENDBRANCH  28  29
ENDBRANCH  27  28
ENDBRANCH  24  27
ENDBRANCH   1  23
TORSDOF 11
ENDMDL
MODEL 7
REMARK VINA RESULT:      -6.8      7.797     11.935
REMARK  11 active torsions:
REMARK  status: ('A' for Active; 'I' for Inactive)
REMARK    1  A    between atoms: C_2  and  N_4 
REMARK    2  A    between atoms: N_4  and  C_5 
REMARK    3  A    between atoms: N_4  and  C_30 
REMARK    4  A    between atoms: C_5  and  C_6 
REMARK    5  A    between atoms: C_6  and  N_7 
REMARK       I    between atoms: N_7  and  C_8 
REMARK    6  A    between atoms: C_8  and  C_10 
REMARK    7  A    between atoms: C_13  and  N_16 
REMARK       I    between atoms: N_16  and  C_17 
REMARK    8  A    between atoms: C_17  and  C_19 
REMARK    9  A    between atoms: C_21  and  O_28 
REMARK   10  A    between atoms: C_22  and  O_26 
REMARK   11  A    between atoms: C_24  and  O_25 
ROOT
HETATM    1  C   UNK N   1      26.064  19.916   5.051  0.00  0.00     0.109 A 
HETATM    2  C   UNK N   1      26.522  20.444   3.832  0.00  0.00     0.088 A 
HETATM    3  S   UNK N   1      25.290  20.175   2.774  0.00  0.00    -0.063 SA
HETATM    4  C   UNK N   1      24.241  19.415   3.794  0.00  0.00     0.151 A 
HETATM    5  N   UNK N   1      24.796  19.375   5.031  0.00  0.00    -0.332 N 
ATOM      6  HN  UNK N   1      24.328  18.991   5.852  1.00  0.00     0.168 HD
ENDROOT
BRANCH   4   7
HETATM    7  N   UNK N   1      22.852  19.580   3.629  0.00  0.00    -0.303 N 
HETATM    8  C   UNK N   1      21.744  18.989   4.138  0.00  0.00     0.260 C 
HETATM    9  O   UNK N   1      20.673  19.447   3.758  0.00  0.00    -0.267 OA
HETATM   10  H   UNK N   1      22.633  20.297   2.991  0.00  0.00     0.171 HD
BRANCH   8  11
HETATM   11  C   UNK N   1      21.670  17.784   5.042  0.00  0.00     0.068 A 
HETATM   12  C   UNK N   1      22.006  16.574   4.416  0.00  0.00     0.059 A 
HETATM   13  C   UNK N   1      22.033  15.353   5.076  0.00  0.00     0.102 A 
HETATM   14  C   UNK N   1      21.686  15.310   6.443  0.00  0.00     0.104 A 
HETATM   15  C   UNK N   1      21.330  16.508   7.093  0.00  0.00     0.077 A 
HETATM   16  C   UNK N   1      21.323  17.738   6.417  0.00  0.00     0.084 A 
BRANCH  13  17
HETATM   17  O   UNK N   1      22.407  14.266   4.351  0.00  0.00    -0.353 OA
HETATM   18  C   UNK N   1      22.077  14.022   3.039  0.00  0.00     0.210 C 
ENDBRANCH  13  17
BRANCH  14  19
HETATM   19  O   UNK N   1      21.694  14.131   7.113  0.00  0.00    -0.353 OA
HETATM   20  C   UNK N   1      22.729  13.718   7.919  0.00  0.00     0.210 C 
ENDBRANCH  14  19
BRANCH  16  21
HETATM   21  O   UNK N   1      20.963  18.830   7.100  0.00  0.00    -0.360 OA
HETATM   22  H   UNK N   1      20.449  19.497   6.689  0.00  0.00     0.217 HD
ENDBRANCH  16  21
ENDBRANCH   8  11
ENDBRANCH   4   7
BRANCH   1  23
HETATM   23  C   UNK N   1      26.770  20.155   6.321  0.00  0.00     0.268 C 
HETATM   24  N   UNK N   1      27.464  19.156   6.929  0.00  0.00    -0.354 N 
HETATM   25  H   UNK N   1      27.800  19.303   7.843  0.00  0.00     0.162 HD
HETATM   26  O   UNK N   1      26.816  21.282   6.783  0.00  0.00    -0.266 OA
BRANCH  24  27
HETATM   27  C   UNK N   1      27.727  17.884   6.285  0.00  0.00     0.153 C 
BRANCH  27  28
HETATM   28  C   UNK N   1      28.733  17.024   7.057  0.00  0.00     0.293 C 
BRANCH  28  29
HETATM   29  N   UNK N   1      30.107  17.559   7.051  0.00  0.00     0.097 N 
BRANCH  29  30
HETATM   30  C   UNK N   1      30.687  17.569   8.419  0.00  0.00     0.215 C 
HETATM   31  C   UNK N   1      32.182  17.835   8.373  0.00  0.00     0.042 C 
HETATM   32  C   UNK N   1      30.103  18.675   9.296  0.00  0.00     0.042 C 
ENDBRANCH  29  30
BRANCH  29  33
HETATM   33  C   UNK N   1      30.905  16.773   6.079  0.00  0.00     0.215 C 
HETATM   34  C   UNK N   1      30.307  15.384   5.884  0.00  0.00     0.042 C 
HETATM   35  C   UNK N   1      31.002  17.411   4.705  0.00  0.00     0.042 C 
ENDBRANCH  29  33
ENDBRANCH  28  29
ENDBRANCH  27  28
ENDBRANCH  24  27
ENDBRANCH   1  23
TORSDOF 11
ENDMDL
MODEL 8
REMARK VINA RESULT:      -6.7     12.324     15.137
REMARK  11 active torsions:
REMARK  status: ('A' for Active; 'I' for Inactive)
REMARK    1  A    between atoms: C_2  and  N_4 
REMARK    2  A    between atoms: N_4  and  C_5 
REMARK    3  A    between atoms: N_4  and  C_30 
REMARK    4  A    between atoms: C_5  and  C_6 
REMARK    5  A    between atoms: C_6  and  N_7 
REMARK       I    between atoms: N_7  and  C_8 
REMARK    6  A    between atoms: C_8  and  C_10 
REMARK    7  A    between atoms: C_13  and  N_16 
REMARK       I    between atoms: N_16  and  C_17 
REMARK    8  A    between atoms: C_17  and  C_19 
REMARK    9  A    between atoms: C_21  and  O_28 
REMARK   10  A    between atoms: C_22  and  O_26 
REMARK   11  A    between atoms: C_24  and  O_25 
ROOT
HETATM    1  C   UNK N   1      21.418  16.997   5.742  0.00  0.00     0.109 A 
HETATM    2  C   UNK N   1      22.800  16.842   5.537  0.00  0.00     0.088 A 
HETATM    3  S   UNK N   1      22.944  16.467   3.940  0.00  0.00    -0.063 SA
HETATM    4  C   UNK N   1      21.346  16.481   3.533  0.00  0.00     0.151 A 
HETATM    5  N   UNK N   1      20.624  16.824   4.628  0.00  0.00    -0.332 N 
ATOM      6  HN  UNK N   1      19.612  16.942   4.627  1.00  0.00     0.168 HD
ENDROOT
BRANCH   4   7
HETATM    7  N   UNK N   1      20.951  16.896   2.245  0.00  0.00    -0.303 N 
HETATM    8  C   UNK N   1      20.482  16.277   1.135  0.00  0.00     0.260 C 
HETATM    9  O   UNK N   1      20.214  17.008   0.190  0.00  0.00    -0.267 OA
HETATM   10  H   UNK N   1      21.034  17.869   2.124  0.00  0.00     0.171 HD
BRANCH   8  11
HETATM   11  C   UNK N   1      20.335  14.795   0.894  0.00  0.00     0.068 A 
HETATM   12  C   UNK N   1      21.543  14.082   0.943  0.00  0.00     0.059 A 
HETATM   13  C   UNK N   1      21.626  12.706   0.780  0.00  0.00     0.102 A 
HETATM   14  C   UNK N   1      20.443  11.977   0.529  0.00  0.00     0.104 A 
HETATM   15  C   UNK N   1      19.219  12.670   0.460  0.00  0.00     0.077 A 
HETATM   16  C   UNK N   1      19.149  14.059   0.644  0.00  0.00     0.084 A 
BRANCH  13  17
HETATM   17  O   UNK N   1      22.859  12.144   0.883  0.00  0.00    -0.353 OA
HETATM   18  C   UNK N   1      23.836  12.167  -0.084  0.00  0.00     0.210 C 
ENDBRANCH  13  17
BRANCH  14  19
HETATM   19  O   UNK N   1      20.493  10.633   0.356  0.00  0.00    -0.353 OA
HETATM   20  C   UNK N   1      20.261   9.725   1.363  0.00  0.00     0.210 C 
ENDBRANCH  14  19
BRANCH  16  21
HETATM   21  O   UNK N   1      17.950  14.646   0.553  0.00  0.00    -0.360 OA
HETATM   22  H   UNK N   1      17.529  14.736  -0.279  0.00  0.00     0.217 HD
ENDBRANCH  16  21
ENDBRANCH   8  11
ENDBRANCH   4   7
BRANCH   1  23
HETATM   23  C   UNK N   1      20.871  17.562   6.987  0.00  0.00     0.268 C 
HETATM   24  N   UNK N   1      20.392  16.749   7.967  0.00  0.00    -0.354 N 
HETATM   25  H   UNK N   1      19.901  17.154   8.718  0.00  0.00     0.162 HD
HETATM   26  O   UNK N   1      20.936  18.762   7.185  0.00  0.00    -0.266 OA
BRANCH  24  27
HETATM   27  C   UNK N   1      20.576  15.311   7.947  0.00  0.00     0.153 C 
BRANCH  27  28
HETATM   28  C   UNK N   1      20.939  14.740   9.321  0.00  0.00     0.293 C 
BRANCH  28  29
HETATM   29  N   UNK N   1      22.093  13.820   9.301  0.00  0.00     0.097 N 
BRANCH  29  30
HETATM   30  C   UNK N   1      21.809  12.585  10.076  0.00  0.00     0.215 C 
HETATM   31  C   UNK N   1      22.915  12.309  11.081  0.00  0.00     0.042 C 
HETATM   32  C   UNK N   1      20.527  12.690  10.900  0.00  0.00     0.042 C 
ENDBRANCH  29  30
BRANCH  29  33
HETATM   33  C   UNK N   1      22.452  13.559   7.886  0.00  0.00     0.215 C 
HETATM   34  C   UNK N   1      23.936  13.815   7.647  0.00  0.00     0.042 C 
HETATM   35  C   UNK N   1      22.167  12.139   7.432  0.00  0.00     0.042 C 
ENDBRANCH  29  33
ENDBRANCH  28  29
ENDBRANCH  27  28
ENDBRANCH  24  27
ENDBRANCH   1  23
TORSDOF 11
ENDMDL
MODEL 9
REMARK VINA RESULT:      -6.6      2.252      3.671
REMARK  11 active torsions:
REMARK  status: ('A' for Active; 'I' for Inactive)
REMARK    1  A    between atoms: C_2  and  N_4 
REMARK    2  A    between atoms: N_4  and  C_5 
REMARK    3  A    between atoms: N_4  and  C_30 
REMARK    4  A    between atoms: C_5  and  C_6 
REMARK    5  A    between atoms: C_6  and  N_7 
REMARK       I    between atoms: N_7  and  C_8 
REMARK    6  A    between atoms: C_8  and  C_10 
REMARK    7  A    between atoms: C_13  and  N_16 
REMARK       I    between atoms: N_16  and  C_17 
REMARK    8  A    between atoms: C_17  and  C_19 
REMARK    9  A    between atoms: C_21  and  O_28 
REMARK   10  A    between atoms: C_22  and  O_26 
REMARK   11  A    between atoms: C_24  and  O_25 
ROOT
HETATM    1  C   UNK N   1      34.815  15.060  10.282  0.00  0.00     0.109 A 
HETATM    2  C   UNK N   1      34.961  14.260   9.135  0.00  0.00     0.088 A 
HETATM    3  S   UNK N   1      33.475  14.273   8.427  0.00  0.00    -0.063 SA
HETATM    4  C   UNK N   1      32.683  15.221   9.518  0.00  0.00     0.151 A 
HETATM    5  N   UNK N   1      33.565  15.609  10.472  0.00  0.00    -0.332 N 
ATOM      6  HN  UNK N   1      33.332  16.236  11.242  1.00  0.00     0.168 HD
ENDROOT
BRANCH   4   7
HETATM    7  N   UNK N   1      31.656  16.084   9.089  0.00  0.00    -0.303 N 
HETATM    8  C   UNK N   1      31.250  16.580   7.895  0.00  0.00     0.260 C 
HETATM    9  O   UNK N   1      30.262  17.304   7.926  0.00  0.00    -0.267 OA
HETATM   10  H   UNK N   1      31.097  16.402   9.834  0.00  0.00     0.171 HD
BRANCH   8  11
HETATM   11  C   UNK N   1      31.918  16.423   6.552  0.00  0.00     0.068 A 
HETATM   12  C   UNK N   1      31.302  15.487   5.708  0.00  0.00     0.059 A 
HETATM   13  C   UNK N   1      31.738  15.214   4.419  0.00  0.00     0.102 A 
HETATM   14  C   UNK N   1      32.874  15.893   3.927  0.00  0.00     0.104 A 
HETATM   15  C   UNK N   1      33.521  16.828   4.758  0.00  0.00     0.077 A 
HETATM   16  C   UNK N   1      33.058  17.105   6.053  0.00  0.00     0.084 A 
BRANCH  13  17
HETATM   17  O   UNK N   1      31.026  14.304   3.704  0.00  0.00    -0.353 OA
HETATM   18  C   UNK N   1      29.876  14.560   2.995  0.00  0.00     0.210 C 
ENDBRANCH  13  17
BRANCH  14  19
HETATM   19  O   UNK N   1      33.330  15.642   2.675  0.00  0.00    -0.353 OA
HETATM   20  C   UNK N   1      34.176  14.602   2.365  0.00  0.00     0.210 C 
ENDBRANCH  14  19
BRANCH  16  21
HETATM   21  O   UNK N   1      33.733  17.997   6.786  0.00  0.00    -0.360 OA
HETATM   22  H   UNK N   1      34.381  18.544   6.387  0.00  0.00     0.217 HD
ENDBRANCH  16  21
ENDBRANCH   8  11
ENDBRANCH   4   7
BRANCH   1  23
HETATM   23  C   UNK N   1      35.971  15.499  11.080  0.00  0.00     0.268 C 
HETATM   24  N   UNK N   1      36.337  14.825  12.203  0.00  0.00    -0.354 N 
HETATM   25  H   UNK N   1      37.016  15.224  12.794  0.00  0.00     0.162 HD
HETATM   26  O   UNK N   1      36.667  16.416  10.681  0.00  0.00    -0.266 OA
BRANCH  24  27
HETATM   27  C   UNK N   1      35.764  13.543  12.565  0.00  0.00     0.153 C 
BRANCH  27  28
HETATM   28  C   UNK N   1      36.134  13.107  13.986  0.00  0.00     0.293 C 
BRANCH  28  29
HETATM   29  N   UNK N   1      35.989  11.659  14.225  0.00  0.00     0.097 N 
BRANCH  29  30
HETATM   30  C   UNK N   1      37.293  11.039  14.578  0.00  0.00     0.215 C 
HETATM   31  C   UNK N   1      37.151  10.127  15.785  0.00  0.00     0.042 C 
HETATM   32  C   UNK N   1      37.843  10.153  13.461  0.00  0.00     0.042 C 
ENDBRANCH  29  30
BRANCH  29  33
HETATM   33  C   UNK N   1      34.945  11.463  15.260  0.00  0.00     0.215 C 
HETATM   34  C   UNK N   1      34.595  12.785  15.934  0.00  0.00     0.042 C 
HETATM   35  C   UNK N   1      33.650  10.881  14.723  0.00  0.00     0.042 C 
ENDBRANCH  29  33
ENDBRANCH  28  29
ENDBRANCH  27  28
ENDBRANCH  24  27
ENDBRANCH   1  23
TORSDOF 11
ENDMDL
