MODEL 1
REMARK VINA RESULT:      -6.1      0.000      0.000
REMARK  13 active torsions:
REMARK  status: ('A' for Active; 'I' for Inactive)
REMARK    1  A    between atoms: C_2  and  O_3 
REMARK    2  A    between atoms: C_4  and  O_3 
REMARK    3  A    between atoms: C_4  and  C_5 
REMARK    4  A    between atoms: C_4  and  C_17 
REMARK    5  A    between atoms: C_5  and  O_6 
REMARK    6  A    between atoms: O_6  and  C_7 
REMARK    7  A    between atoms: C_10  and  C_13 
REMARK    8  A    between atoms: C_17  and  S_18 
REMARK    9  A    between atoms: S_18  and  C_19 
REMARK   10  A    between atoms: C_22  and  O_26 
REMARK   11  A    between atoms: O_26  and  C_27 
REMARK   12  A    between atoms: C_27  and  C_28 
REMARK   13  A    between atoms: C_28  and  O_30 
ROOT
HETATM    1  C   UNK N   1      27.705  29.750  -2.366  0.00  0.00     0.155 C 
ENDROOT
BRANCH   1   2
HETATM    2  O   UNK N   1      27.656  30.919  -1.569  0.00  0.00    -0.383 OA
BRANCH   2   3
HETATM    3  C   UNK N   1      28.662  30.859  -0.589  0.00  0.00     0.163 C 
HETATM    4  C   UNK N   1      28.172  30.060   0.602  0.00  0.00     0.033 C 
ENDBRANCH   2   3
ENDBRANCH   1   2
BRANCH   1   5
HETATM    5  C   UNK N   1      26.577  29.597  -3.391  0.00  0.00     0.208 C 
BRANCH   5   6
HETATM    6  O   UNK N   1      25.797  28.487  -3.151  0.00  0.00    -0.349 OA
BRANCH   6   7
HETATM    7  C   UNK N   1      25.906  27.322  -3.828  0.00  0.00     0.068 A 
HETATM    8  C   UNK N   1      26.523  26.192  -3.266  0.00  0.00     0.037 A 
HETATM    9  C   UNK N   1      26.641  25.012  -4.010  0.00  0.00     0.019 A 
HETATM   10  C   UNK N   1      26.153  24.955  -5.323  0.00  0.00     0.048 A 
HETATM   11  C   UNK N   1      25.529  26.080  -5.876  0.00  0.00     0.019 A 
HETATM   12  C   UNK N   1      25.403  27.254  -5.130  0.00  0.00     0.037 A 
BRANCH  10  13
HETATM   13  C   UNK N   1      26.317  23.699  -6.130  0.00  0.00     0.417 C 
HETATM   14  F   UNK N   1      27.490  23.062  -5.767  0.00  0.00    -0.166 F 
HETATM   15  F   UNK N   1      26.371  24.020  -7.474  0.00  0.00    -0.166 F 
HETATM   16  F   UNK N   1      25.256  22.831  -5.924  0.00  0.00    -0.166 F 
ENDBRANCH  10  13
ENDBRANCH   6   7
ENDBRANCH   5   6
ENDBRANCH   1   5
BRANCH   1  17
HETATM   17  C   UNK N   1      29.076  29.468  -2.978  0.00  0.00     0.113 C 
BRANCH  17  18
HETATM   18  S   UNK N   1      28.950  29.371  -4.787  0.00  0.00    -0.127 SA
BRANCH  18  19
HETATM   19  C   UNK N   1      29.525  27.678  -4.797  0.00  0.00     0.001 A 
HETATM   20  C   UNK N   1      30.130  27.142  -3.659  0.00  0.00     0.021 A 
HETATM   21  C   UNK N   1      30.592  25.825  -3.668  0.00  0.00     0.039 A 
HETATM   22  C   UNK N   1      30.452  25.028  -4.819  0.00  0.00     0.075 A 
HETATM   23  C   UNK N   1      29.844  25.577  -5.963  0.00  0.00    -0.027 A 
HETATM   24  C   UNK N   1      29.383  26.895  -5.947  0.00  0.00     0.028 A 
HETATM   25  C   UNK N   1      29.692  24.771  -7.207  0.00  0.00     0.051 C 
BRANCH  22  26
HETATM   26  O   UNK N   1      30.894  23.744  -4.845  0.00  0.00    -0.340 OA
BRANCH  26  27
HETATM   27  C   UNK N   1      31.681  23.175  -3.862  0.00  0.00     0.285 C 
BRANCH  27  28
HETATM   28  C   UNK N   1      30.852  22.427  -2.867  0.00  0.00     0.164 C 
HETATM   29  O   UNK N   1      30.739  22.839  -1.725  0.00  0.00    -0.648 OA
BRANCH  28  30
HETATM   30  O   UNK N   1      30.254  21.276  -3.225  0.00  0.00    -0.775 OA
HETATM   31  H   UNK N   1      30.453  20.478  -2.775  0.00  0.00     0.167 HD
ENDBRANCH  28  30
ENDBRANCH  27  28
ENDBRANCH  26  27
ENDBRANCH  22  26
ENDBRANCH  18  19
ENDBRANCH  17  18
ENDBRANCH   1  17
TORSDOF 13
ENDMDL
MODEL 2
REMARK VINA RESULT:      -6.0      2.791      4.753
REMARK  13 active torsions:
REMARK  status: ('A' for Active; 'I' for Inactive)
REMARK    1  A    between atoms: C_2  and  O_3 
REMARK    2  A    between atoms: C_4  and  O_3 
REMARK    3  A    between atoms: C_4  and  C_5 
REMARK    4  A    between atoms: C_4  and  C_17 
REMARK    5  A    between atoms: C_5  and  O_6 
REMARK    6  A    between atoms: O_6  and  C_7 
REMARK    7  A    between atoms: C_10  and  C_13 
REMARK    8  A    between atoms: C_17  and  S_18 
REMARK    9  A    between atoms: S_18  and  C_19 
REMARK   10  A    between atoms: C_22  and  O_26 
REMARK   11  A    between atoms: O_26  and  C_27 
REMARK   12  A    between atoms: C_27  and  C_28 
REMARK   13  A    between atoms: C_28  and  O_30 
ROOT
HETATM    1  C   UNK N   1      28.988  29.173  -3.275  0.00  0.00     0.155 C 
ENDROOT
BRANCH   1   2
HETATM    2  O   UNK N   1      28.335  29.238  -2.020  0.00  0.00    -0.383 OA
BRANCH   2   3
HETATM    3  C   UNK N   1      29.064  30.074  -1.157  0.00  0.00     0.163 C 
HETATM    4  C   UNK N   1      28.449  30.044   0.228  0.00  0.00     0.033 C 
ENDBRANCH   2   3
ENDBRANCH   1   2
BRANCH   1   5
HETATM    5  C   UNK N   1      30.064  28.091  -3.408  0.00  0.00     0.208 C 
BRANCH   5   6
HETATM    6  O   UNK N   1      29.896  27.321  -4.538  0.00  0.00    -0.349 OA
BRANCH   6   7
HETATM    7  C   UNK N   1      29.977  25.971  -4.557  0.00  0.00     0.068 A 
HETATM    8  C   UNK N   1      30.508  25.245  -3.478  0.00  0.00     0.037 A 
HETATM    9  C   UNK N   1      30.601  23.850  -3.547  0.00  0.00     0.019 A 
HETATM   10  C   UNK N   1      30.172  23.172  -4.697  0.00  0.00     0.048 A 
HETATM   11  C   UNK N   1      29.633  23.898  -5.766  0.00  0.00     0.019 A 
HETATM   12  C   UNK N   1      29.533  25.289  -5.692  0.00  0.00     0.037 A 
BRANCH  10  13
HETATM   13  C   UNK N   1      30.310  21.678  -4.781  0.00  0.00     0.417 C 
HETATM   14  F   UNK N   1      30.033  21.114  -3.550  0.00  0.00    -0.166 F 
HETATM   15  F   UNK N   1      31.605  21.356  -5.146  0.00  0.00    -0.166 F 
HETATM   16  F   UNK N   1      29.440  21.149  -5.721  0.00  0.00    -0.166 F 
ENDBRANCH  10  13
ENDBRANCH   6   7
ENDBRANCH   5   6
ENDBRANCH   1   5
BRANCH   1  17
HETATM   17  C   UNK N   1      28.042  29.189  -4.474  0.00  0.00     0.113 C 
BRANCH  17  18
HETATM   18  S   UNK N   1      26.315  29.188  -3.913  0.00  0.00    -0.127 SA
BRANCH  18  19
HETATM   19  C   UNK N   1      26.071  27.507  -4.473  0.00  0.00     0.001 A 
HETATM   20  C   UNK N   1      25.417  27.266  -5.683  0.00  0.00     0.021 A 
HETATM   21  C   UNK N   1      25.214  25.954  -6.117  0.00  0.00     0.039 A 
HETATM   22  C   UNK N   1      25.665  24.869  -5.343  0.00  0.00     0.075 A 
HETATM   23  C   UNK N   1      26.319  25.122  -4.123  0.00  0.00    -0.027 A 
HETATM   24  C   UNK N   1      26.521  26.437  -3.695  0.00  0.00     0.028 A 
HETATM   25  C   UNK N   1      26.796  24.000  -3.267  0.00  0.00     0.051 C 
BRANCH  22  26
HETATM   26  O   UNK N   1      25.477  23.587  -5.750  0.00  0.00    -0.340 OA
BRANCH  26  27
HETATM   27  C   UNK N   1      25.869  23.100  -6.982  0.00  0.00     0.285 C 
BRANCH  27  28
HETATM   28  C   UNK N   1      24.908  22.074  -7.492  0.00  0.00     0.164 C 
HETATM   29  O   UNK N   1      24.253  21.403  -6.713  0.00  0.00    -0.648 OA
BRANCH  28  30
HETATM   30  O   UNK N   1      24.788  21.869  -8.817  0.00  0.00    -0.775 OA
HETATM   31  H   UNK N   1      25.047  22.533  -9.425  0.00  0.00     0.167 HD
ENDBRANCH  28  30
ENDBRANCH  27  28
ENDBRANCH  26  27
ENDBRANCH  22  26
ENDBRANCH  18  19
ENDBRANCH  17  18
ENDBRANCH   1  17
TORSDOF 13
ENDMDL
MODEL 3
REMARK VINA RESULT:      -5.8      2.117      3.139
REMARK  13 active torsions:
REMARK  status: ('A' for Active; 'I' for Inactive)
REMARK    1  A    between atoms: C_2  and  O_3 
REMARK    2  A    between atoms: C_4  and  O_3 
REMARK    3  A    between atoms: C_4  and  C_5 
REMARK    4  A    between atoms: C_4  and  C_17 
REMARK    5  A    between atoms: C_5  and  O_6 
REMARK    6  A    between atoms: O_6  and  C_7 
REMARK    7  A    between atoms: C_10  and  C_13 
REMARK    8  A    between atoms: C_17  and  S_18 
REMARK    9  A    between atoms: S_18  and  C_19 
REMARK   10  A    between atoms: C_22  and  O_26 
REMARK   11  A    between atoms: O_26  and  C_27 
REMARK   12  A    between atoms: C_27  and  C_28 
REMARK   13  A    between atoms: C_28  and  O_30 
ROOT
HETATM    1  C   UNK N   1      27.138  28.209  -3.958  0.00  0.00     0.155 C 
ENDROOT
BRANCH   1   2
HETATM    2  O   UNK N   1      27.013  29.099  -5.051  0.00  0.00    -0.383 OA
BRANCH   2   3
HETATM    3  C   UNK N   1      27.466  30.375  -4.670  0.00  0.00     0.163 C 
HETATM    4  C   UNK N   1      26.454  31.026  -3.750  0.00  0.00     0.033 C 
ENDBRANCH   2   3
ENDBRANCH   1   2
BRANCH   1   5
HETATM    5  C   UNK N   1      25.933  27.298  -3.703  0.00  0.00     0.208 C 
BRANCH   5   6
HETATM    6  O   UNK N   1      25.286  26.945  -4.867  0.00  0.00    -0.349 OA
BRANCH   6   7
HETATM    7  C   UNK N   1      25.551  25.822  -5.572  0.00  0.00     0.068 A 
HETATM    8  C   UNK N   1      25.652  25.832  -6.974  0.00  0.00     0.037 A 
HETATM    9  C   UNK N   1      25.899  24.643  -7.669  0.00  0.00     0.019 A 
HETATM   10  C   UNK N   1      26.038  23.434  -6.971  0.00  0.00     0.048 A 
HETATM   11  C   UNK N   1      25.948  23.431  -5.574  0.00  0.00     0.019 A 
HETATM   12  C   UNK N   1      25.711  24.619  -4.880  0.00  0.00     0.037 A 
BRANCH  10  13
HETATM   13  C   UNK N   1      26.265  22.156  -7.726  0.00  0.00     0.417 C 
HETATM   14  F   UNK N   1      26.218  22.402  -9.086  0.00  0.00    -0.166 F 
HETATM   15  F   UNK N   1      25.277  21.246  -7.396  0.00  0.00    -0.166 F 
HETATM   16  F   UNK N   1      27.497  21.604  -7.415  0.00  0.00    -0.166 F 
ENDBRANCH  10  13
ENDBRANCH   6   7
ENDBRANCH   5   6
ENDBRANCH   1   5
BRANCH   1  17
HETATM   17  C   UNK N   1      28.455  27.437  -3.926  0.00  0.00     0.113 C 
BRANCH  17  18
HETATM   18  S   UNK N   1      28.993  27.040  -5.615  0.00  0.00    -0.127 SA
BRANCH  18  19
HETATM   19  C   UNK N   1      29.326  25.340  -5.174  0.00  0.00     0.001 A 
HETATM   20  C   UNK N   1      29.747  24.437  -6.153  0.00  0.00     0.021 A 
HETATM   21  C   UNK N   1      29.995  23.106  -5.813  0.00  0.00     0.039 A 
HETATM   22  C   UNK N   1      29.826  22.663  -4.489  0.00  0.00     0.075 A 
HETATM   23  C   UNK N   1      29.398  23.579  -3.510  0.00  0.00    -0.027 A 
HETATM   24  C   UNK N   1      29.153  24.910  -3.855  0.00  0.00     0.028 A 
HETATM   25  C   UNK N   1      29.191  23.146  -2.099  0.00  0.00     0.051 C 
BRANCH  22  26
HETATM   26  O   UNK N   1      30.064  21.373  -4.141  0.00  0.00    -0.340 OA
BRANCH  26  27
HETATM   27  C   UNK N   1      31.262  20.719  -4.361  0.00  0.00     0.285 C 
BRANCH  27  28
HETATM   28  C   UNK N   1      32.360  21.303  -3.530  0.00  0.00     0.164 C 
HETATM   29  O   UNK N   1      33.376  21.722  -4.058  0.00  0.00    -0.648 OA
BRANCH  28  30
HETATM   30  O   UNK N   1      32.240  21.337  -2.190  0.00  0.00    -0.775 OA
HETATM   31  H   UNK N   1      31.417  21.151  -1.783  0.00  0.00     0.167 HD
ENDBRANCH  28  30
ENDBRANCH  27  28
ENDBRANCH  26  27
ENDBRANCH  22  26
ENDBRANCH  18  19
ENDBRANCH  17  18
ENDBRANCH   1  17
TORSDOF 13
ENDMDL
MODEL 4
REMARK VINA RESULT:      -5.8      3.790      6.388
REMARK  13 active torsions:
REMARK  status: ('A' for Active; 'I' for Inactive)
REMARK    1  A    between atoms: C_2  and  O_3 
REMARK    2  A    between atoms: C_4  and  O_3 
REMARK    3  A    between atoms: C_4  and  C_5 
REMARK    4  A    between atoms: C_4  and  C_17 
REMARK    5  A    between atoms: C_5  and  O_6 
REMARK    6  A    between atoms: O_6  and  C_7 
REMARK    7  A    between atoms: C_10  and  C_13 
REMARK    8  A    between atoms: C_17  and  S_18 
REMARK    9  A    between atoms: S_18  and  C_19 
REMARK   10  A    between atoms: C_22  and  O_26 
REMARK   11  A    between atoms: O_26  and  C_27 
REMARK   12  A    between atoms: C_27  and  C_28 
REMARK   13  A    between atoms: C_28  and  O_30 
ROOT
HETATM    1  C   UNK N   1      25.863  24.270  -9.775  0.00  0.00     0.155 C 
ENDROOT
BRANCH   1   2
HETATM    2  O   UNK N   1      25.435  23.775 -11.030  0.00  0.00    -0.383 OA
BRANCH   2   3
HETATM    3  C   UNK N   1      26.477  23.908 -11.965  0.00  0.00     0.163 C 
HETATM    4  C   UNK N   1      27.683  23.114 -11.505  0.00  0.00     0.033 C 
ENDBRANCH   2   3
ENDBRANCH   1   2
BRANCH   1   5
HETATM    5  C   UNK N   1      25.869  25.795  -9.630  0.00  0.00     0.208 C 
BRANCH   5   6
HETATM    6  O   UNK N   1      26.900  26.242  -8.831  0.00  0.00    -0.349 OA
BRANCH   6   7
HETATM    7  C   UNK N   1      26.738  26.709  -7.573  0.00  0.00     0.068 A 
HETATM    8  C   UNK N   1      25.478  26.746  -6.951  0.00  0.00     0.037 A 
HETATM    9  C   UNK N   1      25.348  27.264  -5.658  0.00  0.00     0.019 A 
HETATM   10  C   UNK N   1      26.472  27.758  -4.980  0.00  0.00     0.048 A 
HETATM   11  C   UNK N   1      27.727  27.709  -5.598  0.00  0.00     0.019 A 
HETATM   12  C   UNK N   1      27.857  27.183  -6.886  0.00  0.00     0.037 A 
BRANCH  10  13
HETATM   13  C   UNK N   1      26.318  28.348  -3.607  0.00  0.00     0.417 C 
HETATM   14  F   UNK N   1      25.930  29.671  -3.708  0.00  0.00    -0.166 F 
HETATM   15  F   UNK N   1      27.528  28.279  -2.940  0.00  0.00    -0.166 F 
HETATM   16  F   UNK N   1      25.367  27.659  -2.871  0.00  0.00    -0.166 F 
ENDBRANCH  10  13
ENDBRANCH   6   7
ENDBRANCH   5   6
ENDBRANCH   1   5
BRANCH   1  17
HETATM   17  C   UNK N   1      25.210  23.584  -8.577  0.00  0.00     0.113 C 
BRANCH  17  18
HETATM   18  S   UNK N   1      26.069  22.030  -8.196  0.00  0.00    -0.127 SA
BRANCH  18  19
HETATM   19  C   UNK N   1      27.079  22.823  -6.951  0.00  0.00     0.001 A 
HETATM   20  C   UNK N   1      28.459  22.921  -7.134  0.00  0.00     0.021 A 
HETATM   21  C   UNK N   1      29.251  23.528  -6.158  0.00  0.00     0.039 A 
HETATM   22  C   UNK N   1      28.669  24.046  -4.987  0.00  0.00     0.075 A 
HETATM   23  C   UNK N   1      27.277  23.940  -4.810  0.00  0.00    -0.027 A 
HETATM   24  C   UNK N   1      26.490  23.332  -5.790  0.00  0.00     0.028 A 
HETATM   25  C   UNK N   1      26.624  24.461  -3.575  0.00  0.00     0.051 C 
BRANCH  22  26
HETATM   26  O   UNK N   1      29.424  24.641  -4.028  0.00  0.00    -0.340 OA
BRANCH  26  27
HETATM   27  C   UNK N   1      30.655  24.172  -3.609  0.00  0.00     0.285 C 
BRANCH  27  28
HETATM   28  C   UNK N   1      30.512  23.209  -2.473  0.00  0.00     0.164 C 
HETATM   29  O   UNK N   1      29.555  23.282  -1.721  0.00  0.00    -0.648 OA
BRANCH  28  30
HETATM   30  O   UNK N   1      31.460  22.278  -2.262  0.00  0.00    -0.775 OA
HETATM   31  H   UNK N   1      31.703  22.038  -1.389  0.00  0.00     0.167 HD
ENDBRANCH  28  30
ENDBRANCH  27  28
ENDBRANCH  26  27
ENDBRANCH  22  26
ENDBRANCH  18  19
ENDBRANCH  17  18
ENDBRANCH   1  17
TORSDOF 13
ENDMDL
MODEL 5
REMARK VINA RESULT:      -5.5     11.494     14.555
REMARK  13 active torsions:
REMARK  status: ('A' for Active; 'I' for Inactive)
REMARK    1  A    between atoms: C_2  and  O_3 
REMARK    2  A    between atoms: C_4  and  O_3 
REMARK    3  A    between atoms: C_4  and  C_5 
REMARK    4  A    between atoms: C_4  and  C_17 
REMARK    5  A    between atoms: C_5  and  O_6 
REMARK    6  A    between atoms: O_6  and  C_7 
REMARK    7  A    between atoms: C_10  and  C_13 
REMARK    8  A    between atoms: C_17  and  S_18 
REMARK    9  A    between atoms: S_18  and  C_19 
REMARK   10  A    between atoms: C_22  and  O_26 
REMARK   11  A    between atoms: O_26  and  C_27 
REMARK   12  A    between atoms: C_27  and  C_28 
REMARK   13  A    between atoms: C_28  and  O_30 
ROOT
HETATM    1  C   UNK N   1      28.127  15.695   3.228  0.00  0.00     0.155 C 
ENDROOT
BRANCH   1   2
HETATM    2  O   UNK N   1      27.478  15.050   2.149  0.00  0.00    -0.383 OA
BRANCH   2   3
HETATM    3  C   UNK N   1      28.073  13.796   1.926  0.00  0.00     0.163 C 
HETATM    4  C   UNK N   1      27.023  12.706   2.011  0.00  0.00     0.033 C 
ENDBRANCH   2   3
ENDBRANCH   1   2
BRANCH   1   5
HETATM    5  C   UNK N   1      29.399  16.470   2.869  0.00  0.00     0.208 C 
BRANCH   5   6
HETATM    6  O   UNK N   1      30.534  15.887   3.391  0.00  0.00    -0.349 OA
BRANCH   6   7
HETATM    7  C   UNK N   1      31.236  16.391   4.431  0.00  0.00     0.068 A 
HETATM    8  C   UNK N   1      32.490  17.000   4.253  0.00  0.00     0.037 A 
HETATM    9  C   UNK N   1      33.199  17.484   5.359  0.00  0.00     0.019 A 
HETATM   10  C   UNK N   1      32.667  17.353   6.650  0.00  0.00     0.048 A 
HETATM   11  C   UNK N   1      31.412  16.755   6.821  0.00  0.00     0.019 A 
HETATM   12  C   UNK N   1      30.701  16.282   5.716  0.00  0.00     0.037 A 
BRANCH  10  13
HETATM   13  C   UNK N   1      33.450  17.839   7.835  0.00  0.00     0.417 C 
HETATM   14  F   UNK N   1      34.713  18.231   7.431  0.00  0.00    -0.166 F 
HETATM   15  F   UNK N   1      33.566  16.816   8.759  0.00  0.00    -0.166 F 
HETATM   16  F   UNK N   1      32.821  18.915   8.442  0.00  0.00    -0.166 F 
ENDBRANCH  10  13
ENDBRANCH   6   7
ENDBRANCH   5   6
ENDBRANCH   1   5
BRANCH   1  17
HETATM   17  C   UNK N   1      27.195  16.509   4.123  0.00  0.00     0.113 C 
BRANCH  17  18
HETATM   18  S   UNK N   1      27.667  18.262   4.094  0.00  0.00    -0.127 SA
BRANCH  18  19
HETATM   19  C   UNK N   1      25.970  18.776   3.858  0.00  0.00     0.001 A 
HETATM   20  C   UNK N   1      25.692  20.056   3.373  0.00  0.00     0.021 A 
HETATM   21  C   UNK N   1      24.369  20.465   3.200  0.00  0.00     0.039 A 
HETATM   22  C   UNK N   1      23.307  19.595   3.510  0.00  0.00     0.075 A 
HETATM   23  C   UNK N   1      23.597  18.309   4.002  0.00  0.00    -0.027 A 
HETATM   24  C   UNK N   1      24.923  17.905   4.171  0.00  0.00     0.028 A 
HETATM   25  C   UNK N   1      22.500  17.364   4.358  0.00  0.00     0.051 C 
BRANCH  22  26
HETATM   26  O   UNK N   1      22.014  19.975   3.347  0.00  0.00    -0.340 OA
BRANCH  26  27
HETATM   27  C   UNK N   1      21.592  20.907   2.418  0.00  0.00     0.285 C 
BRANCH  27  28
HETATM   28  C   UNK N   1      20.949  20.248   1.239  0.00  0.00     0.164 C 
HETATM   29  O   UNK N   1      21.108  20.700   0.118  0.00  0.00    -0.648 OA
BRANCH  28  30
HETATM   30  O   UNK N   1      20.165  19.169   1.421  0.00  0.00    -0.775 OA
HETATM   31  H   UNK N   1      19.344  19.099   0.976  0.00  0.00     0.167 HD
ENDBRANCH  28  30
ENDBRANCH  27  28
ENDBRANCH  26  27
ENDBRANCH  22  26
ENDBRANCH  18  19
ENDBRANCH  17  18
ENDBRANCH   1  17
TORSDOF 13
ENDMDL
MODEL 6
REMARK VINA RESULT:      -5.5     11.329     13.545
REMARK  13 active torsions:
REMARK  status: ('A' for Active; 'I' for Inactive)
REMARK    1  A    between atoms: C_2  and  O_3 
REMARK    2  A    between atoms: C_4  and  O_3 
REMARK    3  A    between atoms: C_4  and  C_5 
REMARK    4  A    between atoms: C_4  and  C_17 
REMARK    5  A    between atoms: C_5  and  O_6 
REMARK    6  A    between atoms: O_6  and  C_7 
REMARK    7  A    between atoms: C_10  and  C_13 
REMARK    8  A    between atoms: C_17  and  S_18 
REMARK    9  A    between atoms: S_18  and  C_19 
REMARK   10  A    between atoms: C_22  and  O_26 
REMARK   11  A    between atoms: O_26  and  C_27 
REMARK   12  A    between atoms: C_27  and  C_28 
REMARK   13  A    between atoms: C_28  and  O_30 
ROOT
HETATM    1  C   UNK N   1      27.701  18.984   5.052  0.00  0.00     0.155 C 
ENDROOT
BRANCH   1   2
HETATM    2  O   UNK N   1      28.125  20.333   4.988  0.00  0.00    -0.383 OA
BRANCH   2   3
HETATM    3  C   UNK N   1      27.105  21.167   5.477  0.00  0.00     0.163 C 
HETATM    4  C   UNK N   1      26.799  20.813   6.919  0.00  0.00     0.033 C 
ENDBRANCH   2   3
ENDBRANCH   1   2
BRANCH   1   5
HETATM    5  C   UNK N   1      26.817  18.509   3.895  0.00  0.00     0.208 C 
BRANCH   5   6
HETATM    6  O   UNK N   1      25.566  18.113   4.318  0.00  0.00    -0.349 OA
BRANCH   6   7
HETATM    7  C   UNK N   1      24.409  18.661   3.883  0.00  0.00     0.068 A 
HETATM    8  C   UNK N   1      24.364  19.944   3.311  0.00  0.00     0.037 A 
HETATM    9  C   UNK N   1      23.141  20.487   2.900  0.00  0.00     0.019 A 
HETATM   10  C   UNK N   1      21.955  19.758   3.065  0.00  0.00     0.048 A 
HETATM   11  C   UNK N   1      22.006  18.476   3.626  0.00  0.00     0.019 A 
HETATM   12  C   UNK N   1      23.227  17.931   4.027  0.00  0.00     0.037 A 
BRANCH  10  13
HETATM   13  C   UNK N   1      20.642  20.362   2.657  0.00  0.00     0.417 C 
HETATM   14  F   UNK N   1      20.855  21.345   1.709  0.00  0.00    -0.166 F 
HETATM   15  F   UNK N   1      20.031  20.924   3.764  0.00  0.00    -0.166 F 
HETATM   16  F   UNK N   1      19.795  19.403   2.124  0.00  0.00    -0.166 F 
ENDBRANCH  10  13
ENDBRANCH   6   7
ENDBRANCH   5   6
ENDBRANCH   1   5
BRANCH   1  17
HETATM   17  C   UNK N   1      28.820  17.991   5.361  0.00  0.00     0.113 C 
BRANCH  17  18
HETATM   18  S   UNK N   1      28.549  17.223   6.984  0.00  0.00    -0.127 SA
BRANCH  18  19
HETATM   19  C   UNK N   1      30.308  17.109   7.290  0.00  0.00     0.001 A 
HETATM   20  C   UNK N   1      30.786  17.098   8.602  0.00  0.00     0.021 A 
HETATM   21  C   UNK N   1      32.160  17.023   8.843  0.00  0.00     0.039 A 
HETATM   22  C   UNK N   1      33.069  16.955   7.773  0.00  0.00     0.075 A 
HETATM   23  C   UNK N   1      32.578  16.970   6.454  0.00  0.00    -0.027 A 
HETATM   24  C   UNK N   1      31.203  17.045   6.219  0.00  0.00     0.028 A 
HETATM   25  C   UNK N   1      33.511  16.917   5.292  0.00  0.00     0.051 C 
BRANCH  22  26
HETATM   26  O   UNK N   1      34.408  16.880   7.989  0.00  0.00    -0.340 OA
BRANCH  26  27
HETATM   27  C   UNK N   1      35.015  15.905   8.758  0.00  0.00     0.285 C 
BRANCH  27  28
HETATM   28  C   UNK N   1      35.215  16.370  10.166  0.00  0.00     0.164 C 
HETATM   29  O   UNK N   1      34.825  15.690  11.100  0.00  0.00    -0.648 OA
BRANCH  28  30
HETATM   30  O   UNK N   1      35.800  17.558  10.401  0.00  0.00    -0.775 OA
HETATM   31  H   UNK N   1      36.060  18.109   9.689  0.00  0.00     0.167 HD
ENDBRANCH  28  30
ENDBRANCH  27  28
ENDBRANCH  26  27
ENDBRANCH  22  26
ENDBRANCH  18  19
ENDBRANCH  17  18
ENDBRANCH   1  17
TORSDOF 13
ENDMDL
MODEL 7
REMARK VINA RESULT:      -5.4     11.952     14.779
REMARK  13 active torsions:
REMARK  status: ('A' for Active; 'I' for Inactive)
REMARK    1  A    between atoms: C_2  and  O_3 
REMARK    2  A    between atoms: C_4  and  O_3 
REMARK    3  A    between atoms: C_4  and  C_5 
REMARK    4  A    between atoms: C_4  and  C_17 
REMARK    5  A    between atoms: C_5  and  O_6 
REMARK    6  A    between atoms: O_6  and  C_7 
REMARK    7  A    between atoms: C_10  and  C_13 
REMARK    8  A    between atoms: C_17  and  S_18 
REMARK    9  A    between atoms: S_18  and  C_19 
REMARK   10  A    between atoms: C_22  and  O_26 
REMARK   11  A    between atoms: O_26  and  C_27 
REMARK   12  A    between atoms: C_27  and  C_28 
REMARK   13  A    between atoms: C_28  and  O_30 
ROOT
HETATM    1  C   UNK N   1      28.393  14.244   4.941  0.00  0.00     0.155 C 
ENDROOT
BRANCH   1   2
HETATM    2  O   UNK N   1      28.638  13.047   4.226  0.00  0.00    -0.383 OA
BRANCH   2   3
HETATM    3  C   UNK N   1      29.327  13.345   3.038  0.00  0.00     0.163 C 
HETATM    4  C   UNK N   1      28.479  12.963   1.842  0.00  0.00     0.033 C 
ENDBRANCH   2   3
ENDBRANCH   1   2
BRANCH   1   5
HETATM    5  C   UNK N   1      29.455  15.338   4.788  0.00  0.00     0.208 C 
BRANCH   5   6
HETATM    6  O   UNK N   1      29.552  16.135   5.908  0.00  0.00    -0.349 OA
BRANCH   6   7
HETATM    7  C   UNK N   1      28.987  17.358   6.021  0.00  0.00     0.068 A 
HETATM    8  C   UNK N   1      28.581  17.875   7.263  0.00  0.00     0.037 A 
HETATM    9  C   UNK N   1      27.974  19.134   7.335  0.00  0.00     0.019 A 
HETATM   10  C   UNK N   1      27.759  19.881   6.167  0.00  0.00     0.048 A 
HETATM   11  C   UNK N   1      28.174  19.366   4.933  0.00  0.00     0.019 A 
HETATM   12  C   UNK N   1      28.789  18.114   4.864  0.00  0.00     0.037 A 
BRANCH  10  13
HETATM   13  C   UNK N   1      27.071  21.214   6.247  0.00  0.00     0.417 C 
HETATM   14  F   UNK N   1      27.997  22.200   6.533  0.00  0.00    -0.166 F 
HETATM   15  F   UNK N   1      26.119  21.180   7.249  0.00  0.00    -0.166 F 
HETATM   16  F   UNK N   1      26.445  21.524   5.050  0.00  0.00    -0.166 F 
ENDBRANCH  10  13
ENDBRANCH   6   7
ENDBRANCH   5   6
ENDBRANCH   1   5
BRANCH   1  17
HETATM   17  C   UNK N   1      26.978  14.793   4.775  0.00  0.00     0.113 C 
BRANCH  17  18
HETATM   18  S   UNK N   1      26.089  14.734   6.358  0.00  0.00    -0.127 SA
BRANCH  18  19
HETATM   19  C   UNK N   1      24.895  15.944   5.802  0.00  0.00     0.001 A 
HETATM   20  C   UNK N   1      23.557  15.825   6.181  0.00  0.00     0.021 A 
HETATM   21  C   UNK N   1      22.621  16.761   5.738  0.00  0.00     0.039 A 
HETATM   22  C   UNK N   1      23.015  17.828   4.910  0.00  0.00     0.075 A 
HETATM   23  C   UNK N   1      24.365  17.937   4.530  0.00  0.00    -0.027 A 
HETATM   24  C   UNK N   1      25.298  16.999   4.978  0.00  0.00     0.028 A 
HETATM   25  C   UNK N   1      24.820  19.044   3.641  0.00  0.00     0.051 C 
BRANCH  22  26
HETATM   26  O   UNK N   1      22.118  18.748   4.471  0.00  0.00    -0.340 OA
BRANCH  26  27
HETATM   27  C   UNK N   1      21.061  18.459   3.629  0.00  0.00     0.285 C 
BRANCH  27  28
HETATM   28  C   UNK N   1      20.398  19.708   3.140  0.00  0.00     0.164 C 
HETATM   29  O   UNK N   1      20.325  20.688   3.860  0.00  0.00    -0.648 OA
BRANCH  28  30
HETATM   30  O   UNK N   1      19.852  19.738   1.911  0.00  0.00    -0.775 OA
HETATM   31  H   UNK N   1      19.925  18.998   1.340  0.00  0.00     0.167 HD
ENDBRANCH  28  30
ENDBRANCH  27  28
ENDBRANCH  26  27
ENDBRANCH  22  26
ENDBRANCH  18  19
ENDBRANCH  17  18
ENDBRANCH   1  17
TORSDOF 13
ENDMDL
MODEL 8
REMARK VINA RESULT:      -5.3     18.165     21.695
REMARK  13 active torsions:
REMARK  status: ('A' for Active; 'I' for Inactive)
REMARK    1  A    between atoms: C_2  and  O_3 
REMARK    2  A    between atoms: C_4  and  O_3 
REMARK    3  A    between atoms: C_4  and  C_5 
REMARK    4  A    between atoms: C_4  and  C_17 
REMARK    5  A    between atoms: C_5  and  O_6 
REMARK    6  A    between atoms: O_6  and  C_7 
REMARK    7  A    between atoms: C_10  and  C_13 
REMARK    8  A    between atoms: C_17  and  S_18 
REMARK    9  A    between atoms: S_18  and  C_19 
REMARK   10  A    between atoms: C_22  and  O_26 
REMARK   11  A    between atoms: O_26  and  C_27 
REMARK   12  A    between atoms: C_27  and  C_28 
REMARK   13  A    between atoms: C_28  and  O_30 
ROOT
HETATM    1  C   UNK N   1      36.127  13.635  11.119  0.00  0.00     0.155 C 
ENDROOT
BRANCH   1   2
HETATM    2  O   UNK N   1      37.287  12.831  11.227  0.00  0.00    -0.383 OA
BRANCH   2   3
HETATM    3  C   UNK N   1      38.250  13.273  10.304  0.00  0.00     0.163 C 
HETATM    4  C   UNK N   1      38.824  12.088   9.552  0.00  0.00     0.033 C 
ENDBRANCH   2   3
ENDBRANCH   1   2
BRANCH   1   5
HETATM    5  C   UNK N   1      35.535  14.126  12.444  0.00  0.00     0.208 C 
BRANCH   5   6
HETATM    6  O   UNK N   1      34.661  13.216  12.997  0.00  0.00    -0.349 OA
BRANCH   6   7
HETATM    7  C   UNK N   1      34.798  12.686  14.234  0.00  0.00     0.068 A 
HETATM    8  C   UNK N   1      35.349  13.420  15.298  0.00  0.00     0.037 A 
HETATM    9  C   UNK N   1      35.501  12.826  16.556  0.00  0.00     0.019 A 
HETATM   10  C   UNK N   1      35.112  11.494  16.759  0.00  0.00     0.048 A 
HETATM   11  C   UNK N   1      34.554  10.770  15.698  0.00  0.00     0.019 A 
HETATM   12  C   UNK N   1      34.394  11.366  14.446  0.00  0.00     0.037 A 
BRANCH  10  13
HETATM   13  C   UNK N   1      35.314  10.851  18.101  0.00  0.00     0.417 C 
HETATM   14  F   UNK N   1      36.624  10.429  18.224  0.00  0.00    -0.166 F 
HETATM   15  F   UNK N   1      34.472   9.760  18.218  0.00  0.00    -0.166 F 
HETATM   16  F   UNK N   1      35.032  11.739  19.127  0.00  0.00    -0.166 F 
ENDBRANCH  10  13
ENDBRANCH   6   7
ENDBRANCH   5   6
ENDBRANCH   1   5
BRANCH   1  17
HETATM   17  C   UNK N   1      36.238  14.758  10.090  0.00  0.00     0.113 C 
BRANCH  17  18
HETATM   18  S   UNK N   1      35.435  16.264  10.713  0.00  0.00    -0.127 SA
BRANCH  18  19
HETATM   19  C   UNK N   1      34.549  16.498   9.178  0.00  0.00     0.001 A 
HETATM   20  C   UNK N   1      34.564  17.745   8.550  0.00  0.00     0.021 A 
HETATM   21  C   UNK N   1      33.862  17.935   7.358  0.00  0.00     0.039 A 
HETATM   22  C   UNK N   1      33.138  16.877   6.780  0.00  0.00     0.075 A 
HETATM   23  C   UNK N   1      33.125  15.624   7.422  0.00  0.00    -0.027 A 
HETATM   24  C   UNK N   1      33.831  15.440   8.614  0.00  0.00     0.028 A 
HETATM   25  C   UNK N   1      32.356  14.483   6.851  0.00  0.00     0.051 C 
BRANCH  22  26
HETATM   26  O   UNK N   1      32.451  17.042   5.621  0.00  0.00    -0.340 OA
BRANCH  26  27
HETATM   27  C   UNK N   1      32.999  17.558   4.462  0.00  0.00     0.285 C 
BRANCH  27  28
HETATM   28  C   UNK N   1      32.471  16.857   3.251  0.00  0.00     0.164 C 
HETATM   29  O   UNK N   1      33.144  16.010   2.688  0.00  0.00    -0.648 OA
BRANCH  28  30
HETATM   30  O   UNK N   1      31.261  17.184   2.763  0.00  0.00    -0.775 OA
HETATM   31  H   UNK N   1      30.986  18.080   2.739  0.00  0.00     0.167 HD
ENDBRANCH  28  30
ENDBRANCH  27  28
ENDBRANCH  26  27
ENDBRANCH  22  26
ENDBRANCH  18  19
ENDBRANCH  17  18
ENDBRANCH   1  17
TORSDOF 13
ENDMDL
MODEL 9
REMARK VINA RESULT:      -5.3     19.200     22.637
REMARK  13 active torsions:
REMARK  status: ('A' for Active; 'I' for Inactive)
REMARK    1  A    between atoms: C_2  and  O_3 
REMARK    2  A    between atoms: C_4  and  O_3 
REMARK    3  A    between atoms: C_4  and  C_5 
REMARK    4  A    between atoms: C_4  and  C_17 
REMARK    5  A    between atoms: C_5  and  O_6 
REMARK    6  A    between atoms: O_6  and  C_7 
REMARK    7  A    between atoms: C_10  and  C_13 
REMARK    8  A    between atoms: C_17  and  S_18 
REMARK    9  A    between atoms: S_18  and  C_19 
REMARK   10  A    between atoms: C_22  and  O_26 
REMARK   11  A    between atoms: O_26  and  C_27 
REMARK   12  A    between atoms: C_27  and  C_28 
REMARK   13  A    between atoms: C_28  and  O_30 
ROOT
HETATM    1  C   UNK N   1      35.775  13.776  12.269  0.00  0.00     0.155 C 
ENDROOT
BRANCH   1   2
HETATM    2  O   UNK N   1      34.972  14.859  11.837  0.00  0.00    -0.383 OA
BRANCH   2   3
HETATM    3  C   UNK N   1      35.793  15.858  11.284  0.00  0.00     0.163 C 
HETATM    4  C   UNK N   1      35.053  16.571  10.170  0.00  0.00     0.033 C 
ENDBRANCH   2   3
ENDBRANCH   1   2
BRANCH   1   5
HETATM    5  C   UNK N   1      35.039  12.662  13.020  0.00  0.00     0.208 C 
BRANCH   5   6
HETATM    6  O   UNK N   1      34.504  13.098  14.214  0.00  0.00    -0.349 OA
BRANCH   6   7
HETATM    7  C   UNK N   1      34.778  12.544  15.416  0.00  0.00     0.068 A 
HETATM    8  C   UNK N   1      34.969  11.161  15.569  0.00  0.00     0.037 A 
HETATM    9  C   UNK N   1      35.223  10.623  16.836  0.00  0.00     0.019 A 
HETATM   10  C   UNK N   1      35.279  11.460  17.960  0.00  0.00     0.048 A 
HETATM   11  C   UNK N   1      35.100  12.840  17.801  0.00  0.00     0.019 A 
HETATM   12  C   UNK N   1      34.856  13.377  16.535  0.00  0.00     0.037 A 
BRANCH  10  13
HETATM   13  C   UNK N   1      35.514  10.872  19.321  0.00  0.00     0.417 C 
HETATM   14  F   UNK N   1      34.746   9.732  19.476  0.00  0.00    -0.166 F 
HETATM   15  F   UNK N   1      35.156  11.794  20.288  0.00  0.00    -0.166 F 
HETATM   16  F   UNK N   1      36.847  10.539  19.498  0.00  0.00    -0.166 F 
ENDBRANCH  10  13
ENDBRANCH   6   7
ENDBRANCH   5   6
ENDBRANCH   1   5
BRANCH   1  17
HETATM   17  C   UNK N   1      36.708  13.221  11.195  0.00  0.00     0.113 C 
BRANCH  17  18
HETATM   18  S   UNK N   1      35.973  11.752  10.421  0.00  0.00    -0.127 SA
BRANCH  18  19
HETATM   19  C   UNK N   1      35.179  12.740   9.159  0.00  0.00     0.001 A 
HETATM   20  C   UNK N   1      33.794  12.916   9.183  0.00  0.00     0.021 A 
HETATM   21  C   UNK N   1      33.171  13.677   8.192  0.00  0.00     0.039 A 
HETATM   22  C   UNK N   1      33.927  14.270   7.166  0.00  0.00     0.075 A 
HETATM   23  C   UNK N   1      35.322  14.085   7.148  0.00  0.00    -0.027 A 
HETATM   24  C   UNK N   1      35.941  13.324   8.143  0.00  0.00     0.028 A 
HETATM   25  C   UNK N   1      36.157  14.684   6.069  0.00  0.00     0.051 C 
BRANCH  22  26
HETATM   26  O   UNK N   1      33.338  15.014   6.195  0.00  0.00    -0.340 OA
BRANCH  26  27
HETATM   27  C   UNK N   1      32.683  16.209   6.425  0.00  0.00     0.285 C 
BRANCH  27  28
HETATM   28  C   UNK N   1      33.420  17.359   5.814  0.00  0.00     0.164 C 
HETATM   29  O   UNK N   1      33.106  17.777   4.713  0.00  0.00    -0.648 OA
BRANCH  28  30
HETATM   30  O   UNK N   1      34.455  17.915   6.471  0.00  0.00    -0.775 OA
HETATM   31  H   UNK N   1      34.794  17.514   7.247  0.00  0.00     0.167 HD
ENDBRANCH  28  30
ENDBRANCH  27  28
ENDBRANCH  26  27
ENDBRANCH  22  26
ENDBRANCH  18  19
ENDBRANCH  17  18
ENDBRANCH   1  17
TORSDOF 13
ENDMDL
