MODEL 1
REMARK VINA RESULT:      -8.8      0.000      0.000
REMARK  18 active torsions:
REMARK  status: ('A' for Active; 'I' for Inactive)
REMARK    1  A    between atoms: C_4  and  O_60 
REMARK    2  A    between atoms: C_8  and  O_58 
REMARK    3  A    between atoms: C_11  and  O_53 
REMARK    4  A    between atoms: C_13  and  O_42 
REMARK    5  A    between atoms: C_14  and  O_41 
REMARK    6  A    between atoms: C_19  and  O_20 
REMARK    7  A    between atoms: O_20  and  C_21 
REMARK    8  A    between atoms: C_21  and  C_23 
REMARK    9  A    between atoms: C_23  and  C_24 
REMARK   10  A    between atoms: C_23  and  O_40 
REMARK   11  A    between atoms: C_24  and  C_25 
REMARK   12  A    between atoms: C_24  and  N_31 
REMARK       I    between atoms: N_31  and  C_32 
REMARK   13  A    between atoms: C_32  and  C_34 
REMARK   14  A    between atoms: O_42  and  C_43 
REMARK   15  A    between atoms: C_43  and  C_45 
REMARK   16  A    between atoms: O_53  and  C_54 
REMARK   17  A    between atoms: C_54  and  O_56 
REMARK   18  A    between atoms: O_60  and  C_61 
ROOT
HETATM    1  C   UNK N   1      23.605  19.768   3.427  0.00  0.00     0.046 C 
HETATM    2  C   UNK N   1      23.463  18.508   4.211  0.00  0.00    -0.048 C 
HETATM    3  C   UNK N   1      22.370  17.722   4.064  0.00  0.00    -0.028 C 
HETATM    4  C   UNK N   1      21.103  17.802   3.177  0.00  0.00     0.232 C 
HETATM    5  C   UNK N   1      20.478  16.394   2.626  0.00  0.00     0.171 C 
HETATM    6  O   UNK N   1      19.962  16.528   1.528  0.00  0.00    -0.294 OA
HETATM    7  C   UNK N   1      20.508  14.809   3.262  0.00  0.00     0.055 C 
HETATM    8  C   UNK N   1      19.940  13.918   2.131  0.00  0.00     0.137 C 
HETATM    9  C   UNK N   1      21.002  13.405   1.180  0.00  0.00     0.068 C 
HETATM   10  C   UNK N   1      21.661  12.190   1.861  0.00  0.00     0.162 C 
HETATM   11  C   UNK N   1      21.935  12.400   3.352  0.00  0.00     0.127 C 
HETATM   12  C   UNK N   1      21.872  13.885   3.870  0.00  0.00     0.076 C 
HETATM   13  C   UNK N   1      23.086  14.216   5.051  0.00  0.00     0.176 C 
HETATM   14  C   UNK N   1      23.465  15.749   5.393  0.00  0.00     0.098 C 
HETATM   15  C   UNK N   1      22.490  16.419   4.536  0.00  0.00     0.013 C 
HETATM   16  C   UNK N   1      21.197  16.316   5.415  0.00  0.00     0.023 C 
HETATM   17  C   UNK N   1      23.059  15.986   3.061  0.00  0.00     0.023 C 
HETATM   18  C   UNK N   1      24.821  16.402   5.013  0.00  0.00     0.078 C 
HETATM   19  C   UNK N   1      24.596  17.943   5.105  0.00  0.00     0.164 C 
HETATM   20  C   UNK N   1      20.698  11.557   3.517  0.00  0.00     0.210 C 
HETATM   21  O   UNK N   1      20.649  11.252   2.140  0.00  0.00    -0.380 OA
HETATM   22  C   UNK N   1      19.375  14.680   4.282  0.00  0.00     0.027 C 
ENDROOT
BRANCH  19  23
HETATM   23  O   UNK N   1      25.748  18.671   5.166  0.00  0.00    -0.309 OA
BRANCH  23  24
HETATM   24  C   UNK N   1      26.790  18.382   4.346  0.00  0.00     0.290 C 
HETATM   25  O   UNK N   1      26.655  17.657   3.370  0.00  0.00    -0.262 OA
BRANCH  24  26
HETATM   26  C   UNK N   1      28.129  18.897   4.694  0.00  0.00     0.244 C 
BRANCH  26  27
HETATM   27  C   UNK N   1      28.891  17.907   5.585  0.00  0.00     0.156 C 
BRANCH  27  28
HETATM   28  C   UNK N   1      28.754  17.949   7.082  0.00  0.00    -0.033 A 
HETATM   29  C   UNK N   1      27.759  17.188   7.719  0.00  0.00     0.009 A 
HETATM   30  C   UNK N   1      27.733  17.081   9.111  0.00  0.00     0.001 A 
HETATM   31  C   UNK N   1      28.708  17.728   9.876  0.00  0.00     0.000 A 
HETATM   32  C   UNK N   1      29.704  18.481   9.246  0.00  0.00     0.001 A 
HETATM   33  C   UNK N   1      29.738  18.577   7.851  0.00  0.00     0.009 A 
ENDBRANCH  27  28
BRANCH  27  34
HETATM   34  N   UNK N   1      28.795  16.532   5.160  0.00  0.00    -0.345 N 
HETATM   35  C   UNK N   1      29.860  15.697   5.251  0.00  0.00     0.252 C 
HETATM   36  O   UNK N   1      29.668  14.492   5.213  0.00  0.00    -0.268 OA
HETATM   37  H   UNK N   1      27.944  16.195   4.797  0.00  0.00     0.163 HD
BRANCH  35  38
HETATM   38  C   UNK N   1      31.242  16.212   5.464  0.00  0.00     0.032 A 
HETATM   39  C   UNK N   1      31.866  16.988   4.481  0.00  0.00     0.017 A 
HETATM   40  C   UNK N   1      33.164  17.470   4.685  0.00  0.00     0.001 A 
HETATM   41  C   UNK N   1      33.831  17.207   5.886  0.00  0.00     0.000 A 
HETATM   42  C   UNK N   1      33.206  16.457   6.882  0.00  0.00     0.001 A 
HETATM   43  C   UNK N   1      31.923  15.959   6.667  0.00  0.00     0.017 A 
ENDBRANCH  35  38
ENDBRANCH  27  34
ENDBRANCH  26  27
BRANCH  26  44
HETATM   44  O   UNK N   1      27.995  20.124   5.342  0.00  0.00    -0.383 OA
HETATM   45  H   UNK N   1      28.139  20.973   5.789  0.00  0.00     0.210 HD
ENDBRANCH  26  44
ENDBRANCH  24  26
ENDBRANCH  23  24
ENDBRANCH  19  23
BRANCH  14  46
HETATM   46  O   UNK N   1      23.294  15.983   6.773  0.00  0.00    -0.386 OA
HETATM   47  H   UNK N   1      23.104  16.554   7.533  0.00  0.00     0.210 HD
ENDBRANCH  14  46
BRANCH  13  48
HETATM   48  O   UNK N   1      24.296  13.537   4.831  0.00  0.00    -0.308 OA
BRANCH  48  49
HETATM   49  C   UNK N   1      25.197  13.217   5.822  0.00  0.00     0.293 C 
HETATM   50  O   UNK N   1      26.399  13.282   5.601  0.00  0.00    -0.259 OA
BRANCH  49  51
HETATM   51  C   UNK N   1      24.756  12.729   7.158  0.00  0.00     0.039 A 
HETATM   52  C   UNK N   1      25.087  13.467   8.309  0.00  0.00     0.017 A 
HETATM   53  C   UNK N   1      24.668  13.044   9.574  0.00  0.00     0.001 A 
HETATM   54  C   UNK N   1      23.897  11.888   9.702  0.00  0.00     0.000 A 
HETATM   55  C   UNK N   1      23.568  11.143   8.565  0.00  0.00     0.001 A 
HETATM   56  C   UNK N   1      24.007  11.555   7.301  0.00  0.00     0.017 A 
ENDBRANCH  49  51
ENDBRANCH  48  49
ENDBRANCH  13  48
BRANCH   4  57
HETATM   57  O   UNK N   1      20.238  18.831   3.516  0.00  0.00    -0.304 OA
BRANCH  57  58
HETATM   58  C   UNK N   1      20.320  20.121   3.099  0.00  0.00     0.255 C 
HETATM   59  O   UNK N   1      20.223  21.049   3.884  0.00  0.00    -0.266 OA
HETATM   60  C   UNK N   1      20.533  20.408   1.651  0.00  0.00     0.126 C 
ENDBRANCH  57  58
ENDBRANCH   4  57
BRANCH  11  61
HETATM   61  O   UNK N   1      22.962  11.621   3.863  0.00  0.00    -0.281 OA
BRANCH  61  62
HETATM   62  C   UNK N   1      23.763  10.765   3.162  0.00  0.00     0.407 C 
HETATM   63  O   UNK N   1      23.579   9.564   3.198  0.00  0.00    -0.229 OA
BRANCH  62  64
HETATM   64  O   UNK N   1      24.757  11.267   2.390  0.00  0.00    -0.303 OA
HETATM   65  C   UNK N   1      26.076  11.186   2.758  0.00  0.00     0.215 C 
ENDBRANCH  62  64
ENDBRANCH  61  62
ENDBRANCH  11  61
BRANCH   8  66
HETATM   66  O   UNK N   1      18.770  14.348   1.495  0.00  0.00    -0.394 OA
HETATM   67  H   UNK N   1      18.675  15.265   1.191  0.00  0.00     0.210 HD
ENDBRANCH   8  66
TORSDOF 18
ENDMDL
MODEL 2
REMARK VINA RESULT:      -8.7      1.405      2.642
REMARK  18 active torsions:
REMARK  status: ('A' for Active; 'I' for Inactive)
REMARK    1  A    between atoms: C_4  and  O_60 
REMARK    2  A    between atoms: C_8  and  O_58 
REMARK    3  A    between atoms: C_11  and  O_53 
REMARK    4  A    between atoms: C_13  and  O_42 
REMARK    5  A    between atoms: C_14  and  O_41 
REMARK    6  A    between atoms: C_19  and  O_20 
REMARK    7  A    between atoms: O_20  and  C_21 
REMARK    8  A    between atoms: C_21  and  C_23 
REMARK    9  A    between atoms: C_23  and  C_24 
REMARK   10  A    between atoms: C_23  and  O_40 
REMARK   11  A    between atoms: C_24  and  C_25 
REMARK   12  A    between atoms: C_24  and  N_31 
REMARK       I    between atoms: N_31  and  C_32 
REMARK   13  A    between atoms: C_32  and  C_34 
REMARK   14  A    between atoms: O_42  and  C_43 
REMARK   15  A    between atoms: C_43  and  C_45 
REMARK   16  A    between atoms: O_53  and  C_54 
REMARK   17  A    between atoms: C_54  and  O_56 
REMARK   18  A    between atoms: O_60  and  C_61 
ROOT
HETATM    1  C   UNK N   1      23.666  19.588   3.423  0.00  0.00     0.046 C 
HETATM    2  C   UNK N   1      23.481  18.350   4.232  0.00  0.00    -0.048 C 
HETATM    3  C   UNK N   1      22.366  17.594   4.096  0.00  0.00    -0.028 C 
HETATM    4  C   UNK N   1      21.105  17.694   3.202  0.00  0.00     0.232 C 
HETATM    5  C   UNK N   1      20.440  16.295   2.677  0.00  0.00     0.171 C 
HETATM    6  O   UNK N   1      19.931  16.423   1.574  0.00  0.00    -0.294 OA
HETATM    7  C   UNK N   1      20.418  14.723   3.345  0.00  0.00     0.055 C 
HETATM    8  C   UNK N   1      19.828  13.828   2.230  0.00  0.00     0.137 C 
HETATM    9  C   UNK N   1      20.877  13.263   1.294  0.00  0.00     0.068 C 
HETATM   10  C   UNK N   1      21.497  12.043   2.002  0.00  0.00     0.162 C 
HETATM   11  C   UNK N   1      21.771  12.274   3.490  0.00  0.00     0.127 C 
HETATM   12  C   UNK N   1      21.751  13.771   3.978  0.00  0.00     0.076 C 
HETATM   13  C   UNK N   1      22.971  14.089   5.157  0.00  0.00     0.176 C 
HETATM   14  C   UNK N   1      23.395  15.616   5.469  0.00  0.00     0.098 C 
HETATM   15  C   UNK N   1      22.445  16.298   4.595  0.00  0.00     0.013 C 
HETATM   16  C   UNK N   1      21.145  16.252   5.470  0.00  0.00     0.023 C 
HETATM   17  C   UNK N   1      23.005  15.818   3.131  0.00  0.00     0.023 C 
HETATM   18  C   UNK N   1      24.772  16.220   5.082  0.00  0.00     0.078 C 
HETATM   19  C   UNK N   1      24.594  17.768   5.142  0.00  0.00     0.164 C 
HETATM   20  C   UNK N   1      20.508  11.473   3.667  0.00  0.00     0.210 C 
HETATM   21  O   UNK N   1      20.455  11.141   2.296  0.00  0.00    -0.380 OA
HETATM   22  C   UNK N   1      19.278  14.650   4.363  0.00  0.00     0.027 C 
ENDROOT
BRANCH  19  23
HETATM   23  O   UNK N   1      25.767  18.462   5.192  0.00  0.00    -0.309 OA
BRANCH  23  24
HETATM   24  C   UNK N   1      26.956  17.812   5.125  0.00  0.00     0.290 C 
HETATM   25  O   UNK N   1      27.401  17.191   6.081  0.00  0.00    -0.262 OA
BRANCH  24  26
HETATM   26  C   UNK N   1      27.760  17.929   3.893  0.00  0.00     0.244 C 
BRANCH  26  27
HETATM   27  C   UNK N   1      28.561  16.648   3.627  0.00  0.00     0.156 C 
BRANCH  27  28
HETATM   28  C   UNK N   1      27.881  15.397   3.143  0.00  0.00    -0.033 A 
HETATM   29  C   UNK N   1      26.722  15.487   2.352  0.00  0.00     0.009 A 
HETATM   30  C   UNK N   1      26.185  14.346   1.753  0.00  0.00     0.001 A 
HETATM   31  C   UNK N   1      26.807  13.108   1.934  0.00  0.00     0.000 A 
HETATM   32  C   UNK N   1      27.963  13.014   2.715  0.00  0.00     0.001 A 
HETATM   33  C   UNK N   1      28.510  14.159   3.303  0.00  0.00     0.009 A 
ENDBRANCH  27  28
BRANCH  27  34
HETATM   34  N   UNK N   1      29.754  16.848   2.842  0.00  0.00    -0.345 N 
HETATM   35  C   UNK N   1      30.976  16.529   3.337  0.00  0.00     0.252 C 
HETATM   36  O   UNK N   1      31.906  16.384   2.559  0.00  0.00    -0.268 OA
HETATM   37  H   UNK N   1      29.681  17.222   1.935  0.00  0.00     0.163 HD
BRANCH  35  38
HETATM   38  C   UNK N   1      31.192  16.284   4.790  0.00  0.00     0.032 A 
HETATM   39  C   UNK N   1      31.454  14.991   5.258  0.00  0.00     0.017 A 
HETATM   40  C   UNK N   1      31.656  14.765   6.624  0.00  0.00     0.001 A 
HETATM   41  C   UNK N   1      31.630  15.834   7.525  0.00  0.00     0.000 A 
HETATM   42  C   UNK N   1      31.395  17.130   7.065  0.00  0.00     0.001 A 
HETATM   43  C   UNK N   1      31.172  17.349   5.708  0.00  0.00     0.017 A 
ENDBRANCH  35  38
ENDBRANCH  27  34
ENDBRANCH  26  27
BRANCH  26  44
HETATM   44  O   UNK N   1      28.620  19.020   4.008  0.00  0.00    -0.383 OA
HETATM   45  H   UNK N   1      29.185  19.745   4.320  0.00  0.00     0.210 HD
ENDBRANCH  26  44
ENDBRANCH  24  26
ENDBRANCH  23  24
ENDBRANCH  19  23
BRANCH  14  46
HETATM   46  O   UNK N   1      23.227  15.883   6.844  0.00  0.00    -0.386 OA
HETATM   47  H   UNK N   1      23.565  16.029   7.740  0.00  0.00     0.210 HD
ENDBRANCH  14  46
BRANCH  13  48
HETATM   48  O   UNK N   1      24.160  13.369   4.956  0.00  0.00    -0.308 OA
BRANCH  48  49
HETATM   49  C   UNK N   1      25.049  13.045   5.956  0.00  0.00     0.293 C 
HETATM   50  O   UNK N   1      26.251  13.046   5.731  0.00  0.00    -0.259 OA
BRANCH  49  51
HETATM   51  C   UNK N   1      24.590  12.627   7.310  0.00  0.00     0.039 A 
HETATM   52  C   UNK N   1      24.955  13.393   8.433  0.00  0.00     0.017 A 
HETATM   53  C   UNK N   1      24.521  13.036   9.713  0.00  0.00     0.001 A 
HETATM   54  C   UNK N   1      23.701  11.919   9.884  0.00  0.00     0.000 A 
HETATM   55  C   UNK N   1      23.338  11.147   8.777  0.00  0.00     0.001 A 
HETATM   56  C   UNK N   1      23.792  11.492   7.498  0.00  0.00     0.017 A 
ENDBRANCH  49  51
ENDBRANCH  48  49
ENDBRANCH  13  48
BRANCH   4  57
HETATM   57  O   UNK N   1      20.271  18.756   3.516  0.00  0.00    -0.304 OA
BRANCH  57  58
HETATM   58  C   UNK N   1      20.373  20.027   3.046  0.00  0.00     0.255 C 
HETATM   59  O   UNK N   1      20.268  20.988   3.789  0.00  0.00    -0.266 OA
HETATM   60  C   UNK N   1      20.620  20.249   1.593  0.00  0.00     0.126 C 
ENDBRANCH  57  58
ENDBRANCH   4  57
BRANCH  11  61
HETATM   61  O   UNK N   1      22.772  11.475   4.021  0.00  0.00    -0.281 OA
BRANCH  61  62
HETATM   62  C   UNK N   1      23.474  10.503   3.367  0.00  0.00     0.407 C 
HETATM   63  O   UNK N   1      24.496  10.766   2.765  0.00  0.00    -0.229 OA
BRANCH  62  64
HETATM   64  O   UNK N   1      23.039   9.221   3.420  0.00  0.00    -0.303 OA
HETATM   65  C   UNK N   1      23.022   8.507   4.591  0.00  0.00     0.215 C 
ENDBRANCH  62  64
ENDBRANCH  61  62
ENDBRANCH  11  61
BRANCH   8  66
HETATM   66  O   UNK N   1      18.674  14.280   1.580  0.00  0.00    -0.394 OA
HETATM   67  H   UNK N   1      17.792  14.023   1.891  0.00  0.00     0.210 HD
ENDBRANCH   8  66
TORSDOF 18
ENDMDL
MODEL 3
REMARK VINA RESULT:      -8.6      2.428      8.541
REMARK  18 active torsions:
REMARK  status: ('A' for Active; 'I' for Inactive)
REMARK    1  A    between atoms: C_4  and  O_60 
REMARK    2  A    between atoms: C_8  and  O_58 
REMARK    3  A    between atoms: C_11  and  O_53 
REMARK    4  A    between atoms: C_13  and  O_42 
REMARK    5  A    between atoms: C_14  and  O_41 
REMARK    6  A    between atoms: C_19  and  O_20 
REMARK    7  A    between atoms: O_20  and  C_21 
REMARK    8  A    between atoms: C_21  and  C_23 
REMARK    9  A    between atoms: C_23  and  C_24 
REMARK   10  A    between atoms: C_23  and  O_40 
REMARK   11  A    between atoms: C_24  and  C_25 
REMARK   12  A    between atoms: C_24  and  N_31 
REMARK       I    between atoms: N_31  and  C_32 
REMARK   13  A    between atoms: C_32  and  C_34 
REMARK   14  A    between atoms: O_42  and  C_43 
REMARK   15  A    between atoms: C_43  and  C_45 
REMARK   16  A    between atoms: O_53  and  C_54 
REMARK   17  A    between atoms: C_54  and  O_56 
REMARK   18  A    between atoms: O_60  and  C_61 
ROOT
HETATM    1  C   UNK N   1      23.433  15.095   1.899  0.00  0.00     0.046 C 
HETATM    2  C   UNK N   1      24.425  15.252   3.001  0.00  0.00    -0.048 C 
HETATM    3  C   UNK N   1      25.319  14.271   3.272  0.00  0.00    -0.028 C 
HETATM    4  C   UNK N   1      25.613  12.885   2.645  0.00  0.00     0.232 C 
HETATM    5  C   UNK N   1      27.171  12.388   2.612  0.00  0.00     0.171 C 
HETATM    6  O   UNK N   1      27.403  11.696   1.632  0.00  0.00    -0.294 OA
HETATM    7  C   UNK N   1      28.500  12.736   3.628  0.00  0.00     0.055 C 
HETATM    8  C   UNK N   1      29.724  12.133   2.898  0.00  0.00     0.137 C 
HETATM    9  C   UNK N   1      30.385  13.100   1.937  0.00  0.00     0.068 C 
HETATM   10  C   UNK N   1      31.290  14.019   2.780  0.00  0.00     0.162 C 
HETATM   11  C   UNK N   1      30.640  14.484   4.085  0.00  0.00     0.127 C 
HETATM   12  C   UNK N   1      29.081  14.293   4.195  0.00  0.00     0.076 C 
HETATM   13  C   UNK N   1      28.317  15.614   5.000  0.00  0.00     0.176 C 
HETATM   14  C   UNK N   1      26.722  15.821   4.848  0.00  0.00     0.098 C 
HETATM   15  C   UNK N   1      26.417  14.644   4.041  0.00  0.00     0.013 C 
HETATM   16  C   UNK N   1      26.385  13.526   5.139  0.00  0.00     0.023 C 
HETATM   17  C   UNK N   1      27.197  15.036   2.654  0.00  0.00     0.023 C 
HETATM   18  C   UNK N   1      26.081  16.999   4.065  0.00  0.00     0.078 C 
HETATM   19  C   UNK N   1      24.606  16.577   3.786  0.00  0.00     0.164 C 
HETATM   20  C   UNK N   1      31.512  13.418   4.693  0.00  0.00     0.210 C 
HETATM   21  O   UNK N   1      32.200  13.203   3.479  0.00  0.00    -0.380 OA
HETATM   22  C   UNK N   1      28.437  11.801   4.837  0.00  0.00     0.027 C 
ENDROOT
BRANCH  19  23
HETATM   23  O   UNK N   1      23.787  17.610   3.438  0.00  0.00    -0.309 OA
BRANCH  23  24
HETATM   24  C   UNK N   1      22.840  18.060   4.299  0.00  0.00     0.290 C 
HETATM   25  O   UNK N   1      22.164  19.048   4.047  0.00  0.00    -0.262 OA
BRANCH  24  26
HETATM   26  C   UNK N   1      22.684  17.380   5.600  0.00  0.00     0.244 C 
BRANCH  26  27
HETATM   27  C   UNK N   1      21.791  16.138   5.476  0.00  0.00     0.156 C 
BRANCH  27  28
HETATM   28  C   UNK N   1      22.234  14.810   6.022  0.00  0.00    -0.033 A 
HETATM   29  C   UNK N   1      22.121  13.651   5.232  0.00  0.00     0.009 A 
HETATM   30  C   UNK N   1      22.687  12.448   5.658  0.00  0.00     0.001 A 
HETATM   31  C   UNK N   1      23.378  12.396   6.871  0.00  0.00     0.000 A 
HETATM   32  C   UNK N   1      23.499  13.546   7.657  0.00  0.00     0.001 A 
HETATM   33  C   UNK N   1      22.944  14.755   7.225  0.00  0.00     0.009 A 
ENDBRANCH  27  28
BRANCH  27  34
HETATM   34  N   UNK N   1      20.420  16.354   5.864  0.00  0.00    -0.345 N 
HETATM   35  C   UNK N   1      19.401  16.070   5.014  0.00  0.00     0.252 C 
HETATM   36  O   UNK N   1      18.276  15.936   5.469  0.00  0.00    -0.268 OA
HETATM   37  H   UNK N   1      20.220  16.714   6.758  0.00  0.00     0.163 HD
BRANCH  35  38
HETATM   38  C   UNK N   1      19.634  15.851   3.559  0.00  0.00     0.032 A 
HETATM   39  C   UNK N   1      19.560  14.563   3.018  0.00  0.00     0.017 A 
HETATM   40  C   UNK N   1      19.780  14.362   1.651  0.00  0.00     0.001 A 
HETATM   41  C   UNK N   1      20.041  15.449   0.812  0.00  0.00     0.000 A 
HETATM   42  C   UNK N   1      20.090  16.740   1.339  0.00  0.00     0.001 A 
HETATM   43  C   UNK N   1      19.894  16.936   2.704  0.00  0.00     0.017 A 
ENDBRANCH  35  38
ENDBRANCH  27  34
ENDBRANCH  26  27
BRANCH  26  44
HETATM   44  O   UNK N   1      22.142  18.273   6.522  0.00  0.00    -0.383 OA
HETATM   45  H   UNK N   1      21.690  18.697   7.269  0.00  0.00     0.210 HD
ENDBRANCH  26  44
ENDBRANCH  24  26
ENDBRANCH  23  24
ENDBRANCH  19  23
BRANCH  14  46
HETATM   46  O   UNK N   1      26.121  15.832   6.124  0.00  0.00    -0.386 OA
HETATM   47  H   UNK N   1      25.415  15.599   6.746  0.00  0.00     0.210 HD
ENDBRANCH  14  46
BRANCH  13  48
HETATM   48  O   UNK N   1      28.915  16.860   4.747  0.00  0.00    -0.308 OA
BRANCH  48  49
HETATM   49  C   UNK N   1      28.852  17.938   5.601  0.00  0.00     0.293 C 
HETATM   50  O   UNK N   1      28.582  19.049   5.166  0.00  0.00    -0.259 OA
BRANCH  49  51
HETATM   51  C   UNK N   1      29.167  17.811   7.051  0.00  0.00     0.039 A 
HETATM   52  C   UNK N   1      28.162  18.067   8.003  0.00  0.00     0.017 A 
HETATM   53  C   UNK N   1      28.424  17.936   9.370  0.00  0.00     0.001 A 
HETATM   54  C   UNK N   1      29.686  17.527   9.802  0.00  0.00     0.000 A 
HETATM   55  C   UNK N   1      30.694  17.276   8.866  0.00  0.00     0.001 A 
HETATM   56  C   UNK N   1      30.438  17.431   7.497  0.00  0.00     0.017 A 
ENDBRANCH  49  51
ENDBRANCH  48  49
ENDBRANCH  13  48
BRANCH   4  57
HETATM   57  O   UNK N   1      24.614  11.946   2.854  0.00  0.00    -0.304 OA
BRANCH  57  58
HETATM   58  C   UNK N   1      23.792  11.421   1.908  0.00  0.00     0.255 C 
HETATM   59  O   UNK N   1      24.238  10.843   0.931  0.00  0.00    -0.266 OA
HETATM   60  C   UNK N   1      22.317  11.555   2.070  0.00  0.00     0.126 C 
ENDBRANCH  57  58
ENDBRANCH   4  57
BRANCH  11  61
HETATM   61  O   UNK N   1      31.143  15.677   4.584  0.00  0.00    -0.281 OA
BRANCH  61  62
HETATM   62  C   UNK N   1      32.151  16.425   4.048  0.00  0.00     0.407 C 
HETATM   63  O   UNK N   1      31.943  17.187   3.125  0.00  0.00    -0.229 OA
BRANCH  62  64
HETATM   64  O   UNK N   1      33.395  16.340   4.578  0.00  0.00    -0.303 OA
HETATM   65  C   UNK N   1      33.764  17.060   5.687  0.00  0.00     0.215 C 
ENDBRANCH  62  64
ENDBRANCH  61  62
ENDBRANCH  11  61
BRANCH   8  66
HETATM   66  O   UNK N   1      29.603  10.832   2.398  0.00  0.00    -0.394 OA
HETATM   67  H   UNK N   1      28.934  10.222   2.749  0.00  0.00     0.210 HD
ENDBRANCH   8  66
TORSDOF 18
ENDMDL
MODEL 4
REMARK VINA RESULT:      -8.5      1.919      3.437
REMARK  18 active torsions:
REMARK  status: ('A' for Active; 'I' for Inactive)
REMARK    1  A    between atoms: C_4  and  O_60 
REMARK    2  A    between atoms: C_8  and  O_58 
REMARK    3  A    between atoms: C_11  and  O_53 
REMARK    4  A    between atoms: C_13  and  O_42 
REMARK    5  A    between atoms: C_14  and  O_41 
REMARK    6  A    between atoms: C_19  and  O_20 
REMARK    7  A    between atoms: O_20  and  C_21 
REMARK    8  A    between atoms: C_21  and  C_23 
REMARK    9  A    between atoms: C_23  and  C_24 
REMARK   10  A    between atoms: C_23  and  O_40 
REMARK   11  A    between atoms: C_24  and  C_25 
REMARK   12  A    between atoms: C_24  and  N_31 
REMARK       I    between atoms: N_31  and  C_32 
REMARK   13  A    between atoms: C_32  and  C_34 
REMARK   14  A    between atoms: O_42  and  C_43 
REMARK   15  A    between atoms: C_43  and  C_45 
REMARK   16  A    between atoms: O_53  and  C_54 
REMARK   17  A    between atoms: C_54  and  O_56 
REMARK   18  A    between atoms: O_60  and  C_61 
ROOT
HETATM    1  C   UNK N   1      24.392  19.096   4.053  0.00  0.00     0.046 C 
HETATM    2  C   UNK N   1      24.007  17.764   4.600  0.00  0.00    -0.048 C 
HETATM    3  C   UNK N   1      22.806  17.214   4.302  0.00  0.00    -0.028 C 
HETATM    4  C   UNK N   1      21.610  17.661   3.425  0.00  0.00     0.232 C 
HETATM    5  C   UNK N   1      20.784  16.498   2.626  0.00  0.00     0.171 C 
HETATM    6  O   UNK N   1      20.345  16.906   1.562  0.00  0.00    -0.294 OA
HETATM    7  C   UNK N   1      20.520  14.846   2.973  0.00  0.00     0.055 C 
HETATM    8  C   UNK N   1      19.861  14.274   1.695  0.00  0.00     0.137 C 
HETATM    9  C   UNK N   1      20.863  13.757   0.683  0.00  0.00     0.068 C 
HETATM   10  C   UNK N   1      21.280  12.348   1.147  0.00  0.00     0.162 C 
HETATM   11  C   UNK N   1      21.519  12.248   2.656  0.00  0.00     0.127 C 
HETATM   12  C   UNK N   1      21.683  13.612   3.427  0.00  0.00     0.076 C 
HETATM   13  C   UNK N   1      22.882  13.521   4.664  0.00  0.00     0.176 C 
HETATM   14  C   UNK N   1      23.497  14.884   5.276  0.00  0.00     0.098 C 
HETATM   15  C   UNK N   1      22.686  15.848   4.538  0.00  0.00     0.013 C 
HETATM   16  C   UNK N   1      21.357  15.820   5.367  0.00  0.00     0.023 C 
HETATM   17  C   UNK N   1      23.238  15.584   3.018  0.00  0.00     0.023 C 
HETATM   18  C   UNK N   1      24.958  15.350   5.036  0.00  0.00     0.078 C 
HETATM   19  C   UNK N   1      24.991  16.867   5.395  0.00  0.00     0.164 C 
HETATM   20  C   UNK N   1      20.153  11.616   2.653  0.00  0.00     0.210 C 
HETATM   21  O   UNK N   1      20.114  11.564   1.243  0.00  0.00    -0.380 OA
HETATM   22  C   UNK N   1      19.338  14.741   3.939  0.00  0.00     0.027 C 
ENDROOT
BRANCH  19  23
HETATM   23  O   UNK N   1      26.244  17.364   5.599  0.00  0.00    -0.309 OA
BRANCH  23  24
HETATM   24  C   UNK N   1      27.329  16.728   5.092  0.00  0.00     0.290 C 
HETATM   25  O   UNK N   1      28.011  15.980   5.779  0.00  0.00    -0.262 OA
BRANCH  24  26
HETATM   26  C   UNK N   1      27.733  17.013   3.701  0.00  0.00     0.244 C 
BRANCH  26  27
HETATM   27  C   UNK N   1      28.766  15.994   3.202  0.00  0.00     0.156 C 
BRANCH  27  28
HETATM   28  C   UNK N   1      28.341  14.780   2.423  0.00  0.00    -0.033 A 
HETATM   29  C   UNK N   1      29.304  13.858   1.978  0.00  0.00     0.009 A 
HETATM   30  C   UNK N   1      28.911  12.644   1.411  0.00  0.00     0.001 A 
HETATM   31  C   UNK N   1      27.552  12.340   1.293  0.00  0.00     0.000 A 
HETATM   32  C   UNK N   1      26.590  13.251   1.740  0.00  0.00     0.001 A 
HETATM   33  C   UNK N   1      26.984  14.462   2.321  0.00  0.00     0.009 A 
ENDBRANCH  27  28
BRANCH  27  34
HETATM   34  N   UNK N   1      29.905  16.581   2.540  0.00  0.00    -0.345 N 
HETATM   35  C   UNK N   1      31.134  16.559   3.115  0.00  0.00     0.252 C 
HETATM   36  O   UNK N   1      32.115  16.744   2.412  0.00  0.00    -0.268 OA
HETATM   37  H   UNK N   1      29.789  17.005   1.660  0.00  0.00     0.163 HD
BRANCH  35  38
HETATM   38  C   UNK N   1      31.316  16.248   4.560  0.00  0.00     0.032 A 
HETATM   39  C   UNK N   1      31.298  17.274   5.512  0.00  0.00     0.017 A 
HETATM   40  C   UNK N   1      31.470  16.976   6.869  0.00  0.00     0.001 A 
HETATM   41  C   UNK N   1      31.626  15.651   7.284  0.00  0.00     0.000 A 
HETATM   42  C   UNK N   1      31.619  14.619   6.345  0.00  0.00     0.001 A 
HETATM   43  C   UNK N   1      31.471  14.919   4.993  0.00  0.00     0.017 A 
ENDBRANCH  35  38
ENDBRANCH  27  34
ENDBRANCH  26  27
BRANCH  26  44
HETATM   44  O   UNK N   1      28.256  18.303   3.631  0.00  0.00    -0.383 OA
HETATM   45  H   UNK N   1      28.417  19.247   3.470  0.00  0.00     0.210 HD
ENDBRANCH  26  44
ENDBRANCH  24  26
ENDBRANCH  23  24
ENDBRANCH  19  23
BRANCH  14  46
HETATM   46  O   UNK N   1      23.308  14.904   6.674  0.00  0.00    -0.386 OA
HETATM   47  H   UNK N   1      23.589  15.110   7.578  0.00  0.00     0.210 HD
ENDBRANCH  14  46
BRANCH  13  48
HETATM   48  O   UNK N   1      23.971  12.692   4.344  0.00  0.00    -0.308 OA
BRANCH  48  49
HETATM   49  C   UNK N   1      24.716  11.998   5.271  0.00  0.00     0.293 C 
HETATM   50  O   UNK N   1      24.291  11.844   6.408  0.00  0.00    -0.259 OA
BRANCH  49  51
HETATM   51  C   UNK N   1      26.072  11.470   4.952  0.00  0.00     0.039 A 
HETATM   52  C   UNK N   1      27.196  12.301   5.117  0.00  0.00     0.017 A 
HETATM   53  C   UNK N   1      28.481  11.825   4.844  0.00  0.00     0.001 A 
HETATM   54  C   UNK N   1      28.662  10.507   4.423  0.00  0.00     0.000 A 
HETATM   55  C   UNK N   1      27.552   9.674   4.249  0.00  0.00     0.001 A 
HETATM   56  C   UNK N   1      26.262  10.159   4.500  0.00  0.00     0.017 A 
ENDBRANCH  49  51
ENDBRANCH  48  49
ENDBRANCH  13  48
BRANCH   4  57
HETATM   57  O   UNK N   1      20.915  18.751   3.929  0.00  0.00    -0.304 OA
BRANCH  57  58
HETATM   58  C   UNK N   1      20.803  19.973   3.346  0.00  0.00     0.255 C 
HETATM   59  O   UNK N   1      20.162  20.869   3.870  0.00  0.00    -0.266 OA
HETATM   60  C   UNK N   1      21.477  20.223   2.041  0.00  0.00     0.126 C 
ENDBRANCH  57  58
ENDBRANCH   4  57
BRANCH  11  61
HETATM   61  O   UNK N   1      22.379  11.228   3.035  0.00  0.00    -0.281 OA
BRANCH  61  62
HETATM   62  C   UNK N   1      23.044  10.371   2.206  0.00  0.00     0.407 C 
HETATM   63  O   UNK N   1      24.118  10.673   1.723  0.00  0.00    -0.229 OA
BRANCH  62  64
HETATM   64  O   UNK N   1      22.512   9.152   1.947  0.00  0.00    -0.303 OA
HETATM   65  C   UNK N   1      22.662   8.538   0.729  0.00  0.00     0.215 C 
ENDBRANCH  62  64
ENDBRANCH  61  62
ENDBRANCH  11  61
BRANCH   8  66
HETATM   66  O   UNK N   1      18.808  15.002   1.128  0.00  0.00    -0.394 OA
HETATM   67  H   UNK N   1      18.877  15.363   0.230  0.00  0.00     0.210 HD
ENDBRANCH   8  66
TORSDOF 18
ENDMDL
MODEL 5
REMARK VINA RESULT:      -8.4      3.343      9.520
REMARK  18 active torsions:
REMARK  status: ('A' for Active; 'I' for Inactive)
REMARK    1  A    between atoms: C_4  and  O_60 
REMARK    2  A    between atoms: C_8  and  O_58 
REMARK    3  A    between atoms: C_11  and  O_53 
REMARK    4  A    between atoms: C_13  and  O_42 
REMARK    5  A    between atoms: C_14  and  O_41 
REMARK    6  A    between atoms: C_19  and  O_20 
REMARK    7  A    between atoms: O_20  and  C_21 
REMARK    8  A    between atoms: C_21  and  C_23 
REMARK    9  A    between atoms: C_23  and  C_24 
REMARK   10  A    between atoms: C_23  and  O_40 
REMARK   11  A    between atoms: C_24  and  C_25 
REMARK   12  A    between atoms: C_24  and  N_31 
REMARK       I    between atoms: N_31  and  C_32 
REMARK   13  A    between atoms: C_32  and  C_34 
REMARK   14  A    between atoms: O_42  and  C_43 
REMARK   15  A    between atoms: C_43  and  C_45 
REMARK   16  A    between atoms: O_53  and  C_54 
REMARK   17  A    between atoms: C_54  and  O_56 
REMARK   18  A    between atoms: O_60  and  C_61 
ROOT
HETATM    1  C   UNK N   1      30.938  17.860   8.094  0.00  0.00     0.046 C 
HETATM    2  C   UNK N   1      30.913  17.264   6.727  0.00  0.00    -0.048 C 
HETATM    3  C   UNK N   1      31.998  16.623   6.233  0.00  0.00    -0.028 C 
HETATM    4  C   UNK N   1      33.404  16.301   6.799  0.00  0.00     0.232 C 
HETATM    5  C   UNK N   1      34.088  14.882   6.358  0.00  0.00     0.171 C 
HETATM    6  O   UNK N   1      34.794  14.427   7.244  0.00  0.00    -0.294 OA
HETATM    7  C   UNK N   1      33.914  13.921   4.956  0.00  0.00     0.055 C 
HETATM    8  C   UNK N   1      34.656  12.603   5.286  0.00  0.00     0.137 C 
HETATM    9  C   UNK N   1      33.769  11.563   5.939  0.00  0.00     0.068 C 
HETATM   10  C   UNK N   1      32.975  10.880   4.809  0.00  0.00     0.162 C 
HETATM   11  C   UNK N   1      32.446  11.858   3.758  0.00  0.00     0.127 C 
HETATM   12  C   UNK N   1      32.446  13.381   4.160  0.00  0.00     0.076 C 
HETATM   13  C   UNK N   1      31.048  14.209   3.578  0.00  0.00     0.176 C 
HETATM   14  C   UNK N   1      30.646  15.636   4.220  0.00  0.00     0.098 C 
HETATM   15  C   UNK N   1      31.770  15.796   5.137  0.00  0.00     0.013 C 
HETATM   16  C   UNK N   1      32.885  16.306   4.161  0.00  0.00     0.023 C 
HETATM   17  C   UNK N   1      31.464  14.572   6.184  0.00  0.00     0.023 C 
HETATM   18  C   UNK N   1      29.392  15.853   5.110  0.00  0.00     0.078 C 
HETATM   19  C   UNK N   1      29.628  17.198   5.863  0.00  0.00     0.164 C 
HETATM   20  C   UNK N   1      33.616  11.356   2.955  0.00  0.00     0.210 C 
HETATM   21  O   UNK N   1      33.903  10.342   3.896  0.00  0.00    -0.380 OA
HETATM   22  C   UNK N   1      34.846  14.475   3.876  0.00  0.00     0.027 C 
ENDROOT
BRANCH  19  23
HETATM   23  O   UNK N   1      28.499  17.738   6.405  0.00  0.00    -0.309 OA
BRANCH  23  24
HETATM   24  C   UNK N   1      27.822  18.717   5.753  0.00  0.00     0.290 C 
HETATM   25  O   UNK N   1      28.393  19.508   5.015  0.00  0.00    -0.262 OA
BRANCH  24  26
HETATM   26  C   UNK N   1      26.376  18.870   6.009  0.00  0.00     0.244 C 
BRANCH  26  27
HETATM   27  C   UNK N   1      25.542  18.255   4.877  0.00  0.00     0.156 C 
BRANCH  27  28
HETATM   28  C   UNK N   1      24.360  18.984   4.302  0.00  0.00    -0.033 A 
HETATM   29  C   UNK N   1      24.558  20.041   3.396  0.00  0.00     0.009 A 
HETATM   30  C   UNK N   1      23.474  20.608   2.723  0.00  0.00     0.001 A 
HETATM   31  C   UNK N   1      22.184  20.117   2.946  0.00  0.00     0.000 A 
HETATM   32  C   UNK N   1      21.982  19.062   3.842  0.00  0.00     0.001 A 
HETATM   33  C   UNK N   1      23.071  18.485   4.505  0.00  0.00     0.009 A 
ENDBRANCH  27  28
BRANCH  27  34
HETATM   34  N   UNK N   1      26.323  17.727   3.786  0.00  0.00    -0.345 N 
HETATM   35  C   UNK N   1      26.116  16.468   3.323  0.00  0.00     0.252 C 
HETATM   36  O   UNK N   1      26.532  16.174   2.214  0.00  0.00    -0.268 OA
HETATM   37  H   UNK N   1      27.018  18.287   3.371  0.00  0.00     0.163 HD
BRANCH  35  38
HETATM   38  C   UNK N   1      25.337  15.467   4.104  0.00  0.00     0.032 A 
HETATM   39  C   UNK N   1      24.077  15.050   3.661  0.00  0.00     0.017 A 
HETATM   40  C   UNK N   1      23.349  14.110   4.397  0.00  0.00     0.001 A 
HETATM   41  C   UNK N   1      23.889  13.556   5.562  0.00  0.00     0.000 A 
HETATM   42  C   UNK N   1      25.156  13.946   5.997  0.00  0.00     0.001 A 
HETATM   43  C   UNK N   1      25.870  14.899   5.275  0.00  0.00     0.017 A 
ENDBRANCH  35  38
ENDBRANCH  27  34
ENDBRANCH  26  27
BRANCH  26  44
HETATM   44  O   UNK N   1      26.075  20.224   6.148  0.00  0.00    -0.383 OA
HETATM   45  H   UNK N   1      25.700  21.116   6.084  0.00  0.00     0.210 HD
ENDBRANCH  26  44
ENDBRANCH  24  26
ENDBRANCH  23  24
ENDBRANCH  19  23
BRANCH  14  46
HETATM   46  O   UNK N   1      30.573  16.610   3.202  0.00  0.00    -0.386 OA
HETATM   47  H   UNK N   1      30.767  17.484   2.831  0.00  0.00     0.210 HD
ENDBRANCH  14  46
BRANCH  13  48
HETATM   48  O   UNK N   1      29.883  13.425   3.568  0.00  0.00    -0.308 OA
BRANCH  48  49
HETATM   49  C   UNK N   1      28.892  13.520   2.617  0.00  0.00     0.293 C 
HETATM   50  O   UNK N   1      29.018  14.292   1.676  0.00  0.00    -0.259 OA
BRANCH  49  51
HETATM   51  C   UNK N   1      27.622  12.749   2.725  0.00  0.00     0.039 A 
HETATM   52  C   UNK N   1      26.638  12.891   1.730  0.00  0.00     0.017 A 
HETATM   53  C   UNK N   1      25.445  12.164   1.796  0.00  0.00     0.001 A 
HETATM   54  C   UNK N   1      25.230  11.273   2.847  0.00  0.00     0.000 A 
HETATM   55  C   UNK N   1      26.198  11.129   3.846  0.00  0.00     0.001 A 
HETATM   56  C   UNK N   1      27.383  11.875   3.792  0.00  0.00     0.017 A 
ENDBRANCH  49  51
ENDBRANCH  48  49
ENDBRANCH  13  48
BRANCH   4  57
HETATM   57  O   UNK N   1      34.216  17.413   6.964  0.00  0.00    -0.304 OA
BRANCH  57  58
HETATM   58  C   UNK N   1      34.607  17.956   8.146  0.00  0.00     0.255 C 
HETATM   59  O   UNK N   1      35.019  19.102   8.213  0.00  0.00    -0.266 OA
HETATM   60  C   UNK N   1      34.529  17.134   9.387  0.00  0.00     0.126 C 
ENDBRANCH  57  58
ENDBRANCH   4  57
BRANCH  11  61
HETATM   61  O   UNK N   1      31.328  11.412   3.069  0.00  0.00    -0.281 OA
BRANCH  61  62
HETATM   62  C   UNK N   1      31.293  10.942   1.787  0.00  0.00     0.407 C 
HETATM   63  O   UNK N   1      31.235   9.750   1.558  0.00  0.00    -0.229 OA
BRANCH  62  64
HETATM   64  O   UNK N   1      31.289  11.823   0.757  0.00  0.00    -0.303 OA
HETATM   65  C   UNK N   1      30.422  11.702  -0.300  0.00  0.00     0.215 C 
ENDBRANCH  62  64
ENDBRANCH  61  62
ENDBRANCH  11  61
BRANCH   8  66
HETATM   66  O   UNK N   1      35.929  12.703   5.860  0.00  0.00    -0.394 OA
HETATM   67  H   UNK N   1      36.076  12.477   6.792  0.00  0.00     0.210 HD
ENDBRANCH   8  66
TORSDOF 18
ENDMDL
MODEL 6
REMARK VINA RESULT:      -8.4      3.400      9.541
REMARK  18 active torsions:
REMARK  status: ('A' for Active; 'I' for Inactive)
REMARK    1  A    between atoms: C_4  and  O_60 
REMARK    2  A    between atoms: C_8  and  O_58 
REMARK    3  A    between atoms: C_11  and  O_53 
REMARK    4  A    between atoms: C_13  and  O_42 
REMARK    5  A    between atoms: C_14  and  O_41 
REMARK    6  A    between atoms: C_19  and  O_20 
REMARK    7  A    between atoms: O_20  and  C_21 
REMARK    8  A    between atoms: C_21  and  C_23 
REMARK    9  A    between atoms: C_23  and  C_24 
REMARK   10  A    between atoms: C_23  and  O_40 
REMARK   11  A    between atoms: C_24  and  C_25 
REMARK   12  A    between atoms: C_24  and  N_31 
REMARK       I    between atoms: N_31  and  C_32 
REMARK   13  A    between atoms: C_32  and  C_34 
REMARK   14  A    between atoms: O_42  and  C_43 
REMARK   15  A    between atoms: C_43  and  C_45 
REMARK   16  A    between atoms: O_53  and  C_54 
REMARK   17  A    between atoms: C_54  and  O_56 
REMARK   18  A    between atoms: O_60  and  C_61 
ROOT
HETATM    1  C   UNK N   1      30.716  17.777   8.051  0.00  0.00     0.046 C 
HETATM    2  C   UNK N   1      30.749  17.187   6.683  0.00  0.00    -0.048 C 
HETATM    3  C   UNK N   1      31.870  16.590   6.214  0.00  0.00    -0.028 C 
HETATM    4  C   UNK N   1      33.273  16.320   6.814  0.00  0.00     0.232 C 
HETATM    5  C   UNK N   1      34.022  14.930   6.386  0.00  0.00     0.171 C 
HETATM    6  O   UNK N   1      34.722  14.499   7.289  0.00  0.00    -0.294 OA
HETATM    7  C   UNK N   1      33.921  13.970   4.978  0.00  0.00     0.055 C 
HETATM    8  C   UNK N   1      34.704  12.680   5.322  0.00  0.00     0.137 C 
HETATM    9  C   UNK N   1      33.842  11.603   5.948  0.00  0.00     0.068 C 
HETATM   10  C   UNK N   1      33.103  10.896   4.795  0.00  0.00     0.162 C 
HETATM   11  C   UNK N   1      32.564  11.858   3.734  0.00  0.00     0.127 C 
HETATM   12  C   UNK N   1      32.495  13.377   4.142  0.00  0.00     0.076 C 
HETATM   13  C   UNK N   1      31.082  14.154   3.527  0.00  0.00     0.176 C 
HETATM   14  C   UNK N   1      30.609  15.562   4.163  0.00  0.00     0.098 C 
HETATM   15  C   UNK N   1      31.702  15.760   5.110  0.00  0.00     0.013 C 
HETATM   16  C   UNK N   1      32.821  16.317   4.164  0.00  0.00     0.023 C 
HETATM   17  C   UNK N   1      31.416  14.520   6.144  0.00  0.00     0.023 C 
HETATM   18  C   UNK N   1      29.325  15.726   5.021  0.00  0.00     0.078 C 
HETATM   19  C   UNK N   1      29.490  17.076   5.785  0.00  0.00     0.164 C 
HETATM   20  C   UNK N   1      33.773  11.404   2.961  0.00  0.00     0.210 C 
HETATM   21  O   UNK N   1      34.074  10.398   3.904  0.00  0.00    -0.380 OA
HETATM   22  C   UNK N   1      34.857  14.564   3.923  0.00  0.00     0.027 C 
ENDROOT
BRANCH  19  23
HETATM   23  O   UNK N   1      28.327  17.570   6.299  0.00  0.00    -0.309 OA
BRANCH  23  24
HETATM   24  C   UNK N   1      27.489  16.768   7.003  0.00  0.00     0.290 C 
HETATM   25  O   UNK N   1      27.437  16.812   8.225  0.00  0.00    -0.262 OA
BRANCH  24  26
HETATM   26  C   UNK N   1      26.683  15.770   6.273  0.00  0.00     0.244 C 
BRANCH  26  27
HETATM   27  C   UNK N   1      25.780  16.440   5.229  0.00  0.00     0.156 C 
BRANCH  27  28
HETATM   28  C   UNK N   1      25.511  15.784   3.903  0.00  0.00    -0.033 A 
HETATM   29  C   UNK N   1      24.349  15.012   3.723  0.00  0.00     0.009 A 
HETATM   30  C   UNK N   1      24.000  14.546   2.454  0.00  0.00     0.001 A 
HETATM   31  C   UNK N   1      24.806  14.855   1.354  0.00  0.00     0.000 A 
HETATM   32  C   UNK N   1      25.959  15.627   1.527  0.00  0.00     0.001 A 
HETATM   33  C   UNK N   1      26.301  16.106   2.796  0.00  0.00     0.009 A 
ENDBRANCH  27  28
BRANCH  27  34
HETATM   34  N   UNK N   1      24.530  16.929   5.755  0.00  0.00    -0.345 N 
HETATM   35  C   UNK N   1      23.995  18.095   5.313  0.00  0.00     0.252 C 
HETATM   36  O   UNK N   1      22.809  18.309   5.509  0.00  0.00    -0.268 OA
HETATM   37  H   UNK N   1      24.058  16.410   6.445  0.00  0.00     0.163 HD
BRANCH  35  38
HETATM   38  C   UNK N   1      24.800  19.080   4.538  0.00  0.00     0.032 A 
HETATM   39  C   UNK N   1      25.961  19.634   5.090  0.00  0.00     0.017 A 
HETATM   40  C   UNK N   1      26.714  20.560   4.359  0.00  0.00     0.001 A 
HETATM   41  C   UNK N   1      26.329  20.912   3.062  0.00  0.00     0.000 A 
HETATM   42  C   UNK N   1      25.188  20.345   2.494  0.00  0.00     0.001 A 
HETATM   43  C   UNK N   1      24.427  19.441   3.231  0.00  0.00     0.017 A 
ENDBRANCH  35  38
ENDBRANCH  27  34
ENDBRANCH  26  27
BRANCH  26  44
HETATM   44  O   UNK N   1      25.914  15.046   7.183  0.00  0.00    -0.383 OA
HETATM   45  H   UNK N   1      25.259  14.746   7.833  0.00  0.00     0.210 HD
ENDBRANCH  26  44
ENDBRANCH  24  26
ENDBRANCH  23  24
ENDBRANCH  19  23
BRANCH  14  46
HETATM   46  O   UNK N   1      30.525  16.537   3.148  0.00  0.00    -0.386 OA
HETATM   47  H   UNK N   1      30.840  16.967   2.339  0.00  0.00     0.210 HD
ENDBRANCH  14  46
BRANCH  13  48
HETATM   48  O   UNK N   1      29.948  13.325   3.484  0.00  0.00    -0.308 OA
BRANCH  48  49
HETATM   49  C   UNK N   1      28.973  13.394   2.514  0.00  0.00     0.293 C 
HETATM   50  O   UNK N   1      29.097  14.169   1.575  0.00  0.00    -0.259 OA
BRANCH  49  51
HETATM   51  C   UNK N   1      27.724  12.589   2.598  0.00  0.00     0.039 A 
HETATM   52  C   UNK N   1      27.083  12.432   3.841  0.00  0.00     0.017 A 
HETATM   53  C   UNK N   1      25.897  11.698   3.946  0.00  0.00     0.001 A 
HETATM   54  C   UNK N   1      25.328  11.128   2.806  0.00  0.00     0.000 A 
HETATM   55  C   UNK N   1      25.959  11.272   1.567  0.00  0.00     0.001 A 
HETATM   56  C   UNK N   1      27.159  11.988   1.467  0.00  0.00     0.017 A 
ENDBRANCH  49  51
ENDBRANCH  48  49
ENDBRANCH  13  48
BRANCH   4  57
HETATM   57  O   UNK N   1      34.037  17.462   7.004  0.00  0.00    -0.304 OA
BRANCH  57  58
HETATM   58  C   UNK N   1      34.487  17.940   8.193  0.00  0.00     0.255 C 
HETATM   59  O   UNK N   1      34.941  19.068   8.292  0.00  0.00    -0.266 OA
HETATM   60  C   UNK N   1      34.425  17.068   9.401  0.00  0.00     0.126 C 
ENDBRANCH  57  58
ENDBRANCH   4  57
BRANCH  11  61
HETATM   61  O   UNK N   1      31.482  11.372   3.015  0.00  0.00    -0.281 OA
BRANCH  61  62
HETATM   62  C   UNK N   1      30.813  10.203   3.238  0.00  0.00     0.407 C 
HETATM   63  O   UNK N   1      31.101   9.190   2.630  0.00  0.00    -0.229 OA
BRANCH  62  64
HETATM   64  O   UNK N   1      29.835  10.165   4.175  0.00  0.00    -0.303 OA
HETATM   65  C   UNK N   1      29.790   9.190   5.140  0.00  0.00     0.215 C 
ENDBRANCH  62  64
ENDBRANCH  61  62
ENDBRANCH  11  61
BRANCH   8  66
HETATM   66  O   UNK N   1      35.957  12.826   5.928  0.00  0.00    -0.394 OA
HETATM   67  H   UNK N   1      36.748  13.017   5.400  0.00  0.00     0.210 HD
ENDBRANCH   8  66
TORSDOF 18
ENDMDL
MODEL 7
REMARK VINA RESULT:      -8.3      9.069     15.109
REMARK  18 active torsions:
REMARK  status: ('A' for Active; 'I' for Inactive)
REMARK    1  A    between atoms: C_4  and  O_60 
REMARK    2  A    between atoms: C_8  and  O_58 
REMARK    3  A    between atoms: C_11  and  O_53 
REMARK    4  A    between atoms: C_13  and  O_42 
REMARK    5  A    between atoms: C_14  and  O_41 
REMARK    6  A    between atoms: C_19  and  O_20 
REMARK    7  A    between atoms: O_20  and  C_21 
REMARK    8  A    between atoms: C_21  and  C_23 
REMARK    9  A    between atoms: C_23  and  C_24 
REMARK   10  A    between atoms: C_23  and  O_40 
REMARK   11  A    between atoms: C_24  and  C_25 
REMARK   12  A    between atoms: C_24  and  N_31 
REMARK       I    between atoms: N_31  and  C_32 
REMARK   13  A    between atoms: C_32  and  C_34 
REMARK   14  A    between atoms: O_42  and  C_43 
REMARK   15  A    between atoms: C_43  and  C_45 
REMARK   16  A    between atoms: O_53  and  C_54 
REMARK   17  A    between atoms: C_54  and  O_56 
REMARK   18  A    between atoms: O_60  and  C_61 
ROOT
HETATM    1  C   UNK N   1      35.876  11.339   7.806  0.00  0.00     0.046 C 
HETATM    2  C   UNK N   1      35.381  11.075   9.188  0.00  0.00    -0.048 C 
HETATM    3  C   UNK N   1      35.670   9.911   9.815  0.00  0.00    -0.028 C 
HETATM    4  C   UNK N   1      36.489   8.656   9.424  0.00  0.00     0.232 C 
HETATM    5  C   UNK N   1      37.319   7.895  10.611  0.00  0.00     0.171 C 
HETATM    6  O   UNK N   1      38.349   7.392  10.191  0.00  0.00    -0.294 OA
HETATM    7  C   UNK N   1      37.042   7.770  12.292  0.00  0.00     0.055 C 
HETATM    8  C   UNK N   1      38.327   7.116  12.856  0.00  0.00     0.137 C 
HETATM    9  C   UNK N   1      39.390   8.121  13.248  0.00  0.00     0.068 C 
HETATM   10  C   UNK N   1      39.006   8.659  14.639  0.00  0.00     0.162 C 
HETATM   11  C   UNK N   1      37.511   8.954  14.787  0.00  0.00     0.127 C 
HETATM   12  C   UNK N   1      36.681   9.038  13.452  0.00  0.00     0.076 C 
HETATM   13  C   UNK N   1      35.485  10.281  13.504  0.00  0.00     0.176 C 
HETATM   14  C   UNK N   1      34.827  10.809  12.126  0.00  0.00     0.098 C 
HETATM   15  C   UNK N   1      35.495   9.903  11.196  0.00  0.00     0.013 C 
HETATM   16  C   UNK N   1      34.630   8.608  11.365  0.00  0.00     0.023 C 
HETATM   17  C   UNK N   1      37.042  10.424  11.348  0.00  0.00     0.023 C 
HETATM   18  C   UNK N   1      35.088  12.222  11.537  0.00  0.00     0.078 C 
HETATM   19  C   UNK N   1      34.658  12.150  10.040  0.00  0.00     0.164 C 
HETATM   20  C   UNK N   1      37.504   7.641  15.524  0.00  0.00     0.210 C 
HETATM   21  O   UNK N   1      38.914   7.560  15.515  0.00  0.00    -0.380 OA
HETATM   22  C   UNK N   1      36.049   6.632  12.532  0.00  0.00     0.027 C 
ENDROOT
BRANCH  19  23
HETATM   23  O   UNK N   1      34.468  13.367   9.456  0.00  0.00    -0.309 OA
BRANCH  23  24
HETATM   24  C   UNK N   1      33.265  13.694   8.920  0.00  0.00     0.290 C 
HETATM   25  O   UNK N   1      32.817  13.104   7.946  0.00  0.00    -0.262 OA
BRANCH  24  26
HETATM   26  C   UNK N   1      32.525  14.840   9.484  0.00  0.00     0.244 C 
BRANCH  26  27
HETATM   27  C   UNK N   1      32.440  15.996   8.479  0.00  0.00     0.156 C 
BRANCH  27  28
HETATM   28  C   UNK N   1      31.158  16.755   8.279  0.00  0.00    -0.033 A 
HETATM   29  C   UNK N   1      30.856  17.856   9.100  0.00  0.00     0.009 A 
HETATM   30  C   UNK N   1      29.760  18.672   8.813  0.00  0.00     0.001 A 
HETATM   31  C   UNK N   1      28.963  18.399   7.698  0.00  0.00     0.000 A 
HETATM   32  C   UNK N   1      29.262  17.308   6.875  0.00  0.00     0.001 A 
HETATM   33  C   UNK N   1      30.369  16.499   7.154  0.00  0.00     0.009 A 
ENDBRANCH  27  28
BRANCH  27  34
HETATM   34  N   UNK N   1      33.519  16.948   8.579  0.00  0.00    -0.345 N 
HETATM   35  C   UNK N   1      34.091  17.474   7.467  0.00  0.00     0.252 C 
HETATM   36  O   UNK N   1      34.743  18.501   7.571  0.00  0.00    -0.268 OA
HETATM   37  H   UNK N   1      33.846  17.219   9.467  0.00  0.00     0.163 HD
BRANCH  35  38
HETATM   38  C   UNK N   1      33.886  16.870   6.121  0.00  0.00     0.032 A 
HETATM   39  C   UNK N   1      34.409  15.605   5.827  0.00  0.00     0.017 A 
HETATM   40  C   UNK N   1      34.214  15.042   4.561  0.00  0.00     0.001 A 
HETATM   41  C   UNK N   1      33.467  15.723   3.595  0.00  0.00     0.000 A 
HETATM   42  C   UNK N   1      32.920  16.972   3.888  0.00  0.00     0.001 A 
HETATM   43  C   UNK N   1      33.134  17.542   5.141  0.00  0.00     0.017 A 
ENDBRANCH  35  38
ENDBRANCH  27  34
ENDBRANCH  26  27
BRANCH  26  44
HETATM   44  O   UNK N   1      33.156  15.262  10.653  0.00  0.00    -0.383 OA
HETATM   45  H   UNK N   1      33.747  15.384  11.413  0.00  0.00     0.210 HD
ENDBRANCH  26  44
ENDBRANCH  24  26
ENDBRANCH  23  24
ENDBRANCH  19  23
BRANCH  14  46
HETATM   46  O   UNK N   1      33.426  10.665  12.184  0.00  0.00    -0.386 OA
HETATM   47  H   UNK N   1      32.592  10.240  11.930  0.00  0.00     0.210 HD
ENDBRANCH  14  46
BRANCH  13  48
HETATM   48  O   UNK N   1      35.875  11.418  14.230  0.00  0.00    -0.308 OA
BRANCH  48  49
HETATM   49  C   UNK N   1      35.025  12.172  15.009  0.00  0.00     0.293 C 
HETATM   50  O   UNK N   1      33.815  12.018  14.919  0.00  0.00    -0.259 OA
BRANCH  49  51
HETATM   51  C   UNK N   1      35.531  13.228  15.929  0.00  0.00     0.039 A 
HETATM   52  C   UNK N   1      36.583  14.064  15.513  0.00  0.00     0.017 A 
HETATM   53  C   UNK N   1      37.064  15.076  16.348  0.00  0.00     0.001 A 
HETATM   54  C   UNK N   1      36.486  15.278  17.602  0.00  0.00     0.000 A 
HETATM   55  C   UNK N   1      35.445  14.448  18.029  0.00  0.00     0.001 A 
HETATM   56  C   UNK N   1      34.979  13.419  17.201  0.00  0.00     0.017 A 
ENDBRANCH  49  51
ENDBRANCH  48  49
ENDBRANCH  13  48
BRANCH   4  57
HETATM   57  O   UNK N   1      35.915   7.896   8.415  0.00  0.00    -0.304 OA
BRANCH  57  58
HETATM   58  C   UNK N   1      35.811   6.542   8.388  0.00  0.00     0.255 C 
HETATM   59  O   UNK N   1      36.650   5.853   7.833  0.00  0.00    -0.266 OA
HETATM   60  C   UNK N   1      34.648   5.887   9.050  0.00  0.00     0.126 C 
ENDBRANCH  57  58
ENDBRANCH   4  57
BRANCH  11  61
HETATM   61  O   UNK N   1      37.206   9.902  15.753  0.00  0.00    -0.281 OA
BRANCH  61  62
HETATM   62  C   UNK N   1      36.581   9.679  16.947  0.00  0.00     0.407 C 
HETATM   63  O   UNK N   1      37.203   9.686  17.990  0.00  0.00    -0.229 OA
BRANCH  62  64
HETATM   64  O   UNK N   1      35.241   9.481  16.967  0.00  0.00    -0.303 OA
HETATM   65  C   UNK N   1      34.511   9.565  18.127  0.00  0.00     0.215 C 
ENDBRANCH  62  64
ENDBRANCH  61  62
ENDBRANCH  11  61
BRANCH   8  66
HETATM   66  O   UNK N   1      38.827   5.993  12.188  0.00  0.00    -0.394 OA
HETATM   67  H   UNK N   1      39.593   5.506  12.533  0.00  0.00     0.210 HD
ENDBRANCH   8  66
TORSDOF 18
ENDMDL
MODEL 8
REMARK VINA RESULT:      -8.1      1.902      2.909
REMARK  18 active torsions:
REMARK  status: ('A' for Active; 'I' for Inactive)
REMARK    1  A    between atoms: C_4  and  O_60 
REMARK    2  A    between atoms: C_8  and  O_58 
REMARK    3  A    between atoms: C_11  and  O_53 
REMARK    4  A    between atoms: C_13  and  O_42 
REMARK    5  A    between atoms: C_14  and  O_41 
REMARK    6  A    between atoms: C_19  and  O_20 
REMARK    7  A    between atoms: O_20  and  C_21 
REMARK    8  A    between atoms: C_21  and  C_23 
REMARK    9  A    between atoms: C_23  and  C_24 
REMARK   10  A    between atoms: C_23  and  O_40 
REMARK   11  A    between atoms: C_24  and  C_25 
REMARK   12  A    between atoms: C_24  and  N_31 
REMARK       I    between atoms: N_31  and  C_32 
REMARK   13  A    between atoms: C_32  and  C_34 
REMARK   14  A    between atoms: O_42  and  C_43 
REMARK   15  A    between atoms: C_43  and  C_45 
REMARK   16  A    between atoms: O_53  and  C_54 
REMARK   17  A    between atoms: C_54  and  O_56 
REMARK   18  A    between atoms: O_60  and  C_61 
ROOT
HETATM    1  C   UNK N   1      24.846  17.791   3.479  0.00  0.00     0.046 C 
HETATM    2  C   UNK N   1      24.242  16.786   4.399  0.00  0.00    -0.048 C 
HETATM    3  C   UNK N   1      22.940  16.434   4.279  0.00  0.00    -0.028 C 
HETATM    4  C   UNK N   1      21.802  16.845   3.311  0.00  0.00     0.232 C 
HETATM    5  C   UNK N   1      20.713  15.696   2.896  0.00  0.00     0.171 C 
HETATM    6  O   UNK N   1      20.297  15.858   1.760  0.00  0.00    -0.294 OA
HETATM    7  C   UNK N   1      20.152  14.309   3.720  0.00  0.00     0.055 C 
HETATM    8  C   UNK N   1      19.314  13.539   2.671  0.00  0.00     0.137 C 
HETATM    9  C   UNK N   1      20.128  12.554   1.857  0.00  0.00     0.068 C 
HETATM   10  C   UNK N   1      20.288  11.287   2.719  0.00  0.00     0.162 C 
HETATM   11  C   UNK N   1      20.598  11.583   4.188  0.00  0.00     0.127 C 
HETATM   12  C   UNK N   1      21.075  13.047   4.519  0.00  0.00     0.076 C 
HETATM   13  C   UNK N   1      22.309  13.074   5.725  0.00  0.00     0.176 C 
HETATM   14  C   UNK N   1      23.218  14.398   5.902  0.00  0.00     0.098 C 
HETATM   15  C   UNK N   1      22.568  15.252   4.912  0.00  0.00     0.013 C 
HETATM   16  C   UNK N   1      21.314  15.742   5.714  0.00  0.00     0.023 C 
HETATM   17  C   UNK N   1      22.960  14.448   3.538  0.00  0.00     0.023 C 
HETATM   18  C   UNK N   1      24.724  14.461   5.532  0.00  0.00     0.078 C 
HETATM   19  C   UNK N   1      25.077  15.976   5.423  0.00  0.00     0.164 C 
HETATM   20  C   UNK N   1      19.136  11.274   4.376  0.00  0.00     0.210 C 
HETATM   21  O   UNK N   1      18.999  10.824   3.045  0.00  0.00    -0.380 OA
HETATM   22  C   UNK N   1      19.036  14.737   4.675  0.00  0.00     0.027 C 
ENDROOT
BRANCH  19  23
HETATM   23  O   UNK N   1      26.414  16.240   5.467  0.00  0.00    -0.309 OA
BRANCH  23  24
HETATM   24  C   UNK N   1      27.088  16.193   6.644  0.00  0.00     0.290 C 
HETATM   25  O   UNK N   1      26.512  15.983   7.703  0.00  0.00    -0.262 OA
BRANCH  24  26
HETATM   26  C   UNK N   1      28.535  16.483   6.644  0.00  0.00     0.244 C 
BRANCH  26  27
HETATM   27  C   UNK N   1      28.810  17.947   7.010  0.00  0.00     0.156 C 
BRANCH  27  28
HETATM   28  C   UNK N   1      28.165  19.070   6.247  0.00  0.00    -0.033 A 
HETATM   29  C   UNK N   1      28.266  19.116   4.845  0.00  0.00     0.009 A 
HETATM   30  C   UNK N   1      27.529  20.050   4.114  0.00  0.00     0.001 A 
HETATM   31  C   UNK N   1      26.678  20.937   4.778  0.00  0.00     0.000 A 
HETATM   32  C   UNK N   1      26.569  20.891   6.172  0.00  0.00     0.001 A 
HETATM   33  C   UNK N   1      27.298  19.947   6.903  0.00  0.00     0.009 A 
ENDBRANCH  27  28
BRANCH  27  34
HETATM   34  N   UNK N   1      28.701  18.235   8.419  0.00  0.00    -0.345 N 
HETATM   35  C   UNK N   1      29.801  18.260   9.214  0.00  0.00     0.252 C 
HETATM   36  O   UNK N   1      29.734  18.827  10.293  0.00  0.00    -0.268 OA
HETATM   37  H   UNK N   1      27.816  18.415   8.810  0.00  0.00     0.163 HD
BRANCH  35  38
HETATM   38  C   UNK N   1      31.098  17.676   8.772  0.00  0.00     0.032 A 
HETATM   39  C   UNK N   1      32.109  18.502   8.267  0.00  0.00     0.017 A 
HETATM   40  C   UNK N   1      33.326  17.950   7.853  0.00  0.00     0.001 A 
HETATM   41  C   UNK N   1      33.552  16.575   7.972  0.00  0.00     0.000 A 
HETATM   42  C   UNK N   1      32.560  15.748   8.498  0.00  0.00     0.001 A 
HETATM   43  C   UNK N   1      31.340  16.296   8.889  0.00  0.00     0.017 A 
ENDBRANCH  35  38
ENDBRANCH  27  34
ENDBRANCH  26  27
BRANCH  26  44
HETATM   44  O   UNK N   1      29.061  16.194   5.385  0.00  0.00    -0.383 OA
HETATM   45  H   UNK N   1      29.633  16.010   4.624  0.00  0.00     0.210 HD
ENDBRANCH  26  44
ENDBRANCH  24  26
ENDBRANCH  23  24
ENDBRANCH  19  23
BRANCH  14  46
HETATM   46  O   UNK N   1      23.125  14.862   7.231  0.00  0.00    -0.386 OA
HETATM   47  H   UNK N   1      22.678  15.337   7.948  0.00  0.00     0.210 HD
ENDBRANCH  14  46
BRANCH  13  48
HETATM   48  O   UNK N   1      23.190  11.981   5.664  0.00  0.00    -0.308 OA
BRANCH  48  49
HETATM   49  C   UNK N   1      23.626  11.274   6.762  0.00  0.00     0.293 C 
HETATM   50  O   UNK N   1      24.234  10.223   6.612  0.00  0.00    -0.259 OA
BRANCH  49  51
HETATM   51  C   UNK N   1      23.326  11.718   8.152  0.00  0.00     0.039 A 
HETATM   52  C   UNK N   1      24.386  11.970   9.043  0.00  0.00     0.017 A 
HETATM   53  C   UNK N   1      24.135  12.407  10.346  0.00  0.00     0.001 A 
HETATM   54  C   UNK N   1      22.821  12.616  10.770  0.00  0.00     0.000 A 
HETATM   55  C   UNK N   1      21.760  12.362   9.896  0.00  0.00     0.001 A 
HETATM   56  C   UNK N   1      22.012  11.901   8.597  0.00  0.00     0.017 A 
ENDBRANCH  49  51
ENDBRANCH  48  49
ENDBRANCH  13  48
BRANCH   4  57
HETATM   57  O   UNK N   1      21.368  18.153   3.469  0.00  0.00    -0.304 OA
BRANCH  57  58
HETATM   58  C   UNK N   1      21.360  19.118   2.513  0.00  0.00     0.255 C 
HETATM   59  O   UNK N   1      20.634  19.037   1.536  0.00  0.00    -0.266 OA
HETATM   60  C   UNK N   1      22.255  20.300   2.663  0.00  0.00     0.126 C 
ENDBRANCH  57  58
ENDBRANCH   4  57
BRANCH  11  61
HETATM   61  O   UNK N   1      21.262  10.563   4.852  0.00  0.00    -0.281 OA
BRANCH  61  62
HETATM   62  C   UNK N   1      21.667   9.371   4.322  0.00  0.00     0.407 C 
HETATM   63  O   UNK N   1      22.688   9.292   3.668  0.00  0.00    -0.229 OA
BRANCH  62  64
HETATM   64  O   UNK N   1      20.934   8.257   4.557  0.00  0.00    -0.303 OA
HETATM   65  C   UNK N   1      20.241   7.618   3.560  0.00  0.00     0.215 C 
ENDBRANCH  62  64
ENDBRANCH  61  62
ENDBRANCH  11  61
BRANCH   8  66
HETATM   66  O   UNK N   1      18.392  14.272   1.915  0.00  0.00    -0.394 OA
HETATM   67  H   UNK N   1      18.609  15.158   1.584  0.00  0.00     0.210 HD
ENDBRANCH   8  66
TORSDOF 18
ENDMDL
MODEL 9
REMARK VINA RESULT:      -8.0      3.040      9.503
REMARK  18 active torsions:
REMARK  status: ('A' for Active; 'I' for Inactive)
REMARK    1  A    between atoms: C_4  and  O_60 
REMARK    2  A    between atoms: C_8  and  O_58 
REMARK    3  A    between atoms: C_11  and  O_53 
REMARK    4  A    between atoms: C_13  and  O_42 
REMARK    5  A    between atoms: C_14  and  O_41 
REMARK    6  A    between atoms: C_19  and  O_20 
REMARK    7  A    between atoms: O_20  and  C_21 
REMARK    8  A    between atoms: C_21  and  C_23 
REMARK    9  A    between atoms: C_23  and  C_24 
REMARK   10  A    between atoms: C_23  and  O_40 
REMARK   11  A    between atoms: C_24  and  C_25 
REMARK   12  A    between atoms: C_24  and  N_31 
REMARK       I    between atoms: N_31  and  C_32 
REMARK   13  A    between atoms: C_32  and  C_34 
REMARK   14  A    between atoms: O_42  and  C_43 
REMARK   15  A    between atoms: C_43  and  C_45 
REMARK   16  A    between atoms: O_53  and  C_54 
REMARK   17  A    between atoms: C_54  and  O_56 
REMARK   18  A    between atoms: O_60  and  C_61 
ROOT
HETATM    1  C   UNK N   1      27.046  16.025   7.850  0.00  0.00     0.046 C 
HETATM    2  C   UNK N   1      27.530  15.934   6.442  0.00  0.00    -0.048 C 
HETATM    3  C   UNK N   1      28.740  16.430   6.093  0.00  0.00    -0.028 C 
HETATM    4  C   UNK N   1      29.880  17.127   6.877  0.00  0.00     0.232 C 
HETATM    5  C   UNK N   1      31.417  16.818   6.407  0.00  0.00     0.171 C 
HETATM    6  O   UNK N   1      32.191  16.843   7.351  0.00  0.00    -0.294 OA
HETATM    7  C   UNK N   1      32.080  16.391   4.892  0.00  0.00     0.055 C 
HETATM    8  C   UNK N   1      33.551  16.015   5.197  0.00  0.00     0.137 C 
HETATM    9  C   UNK N   1      33.738  14.550   5.534  0.00  0.00     0.068 C 
HETATM   10  C   UNK N   1      33.777  13.785   4.196  0.00  0.00     0.162 C 
HETATM   11  C   UNK N   1      32.727  14.263   3.190  0.00  0.00     0.127 C 
HETATM   12  C   UNK N   1      31.560  15.148   3.767  0.00  0.00     0.076 C 
HETATM   13  C   UNK N   1      30.042  14.787   3.030  0.00  0.00     0.176 C 
HETATM   14  C   UNK N   1      28.676  15.261   3.751  0.00  0.00     0.098 C 
HETATM   15  C   UNK N   1      29.256  15.980   4.882  0.00  0.00     0.013 C 
HETATM   16  C   UNK N   1      29.630  17.346   4.209  0.00  0.00     0.023 C 
HETATM   17  C   UNK N   1      29.947  14.734   5.691  0.00  0.00     0.023 C 
HETATM   18  C   UNK N   1      27.663  14.280   4.401  0.00  0.00     0.078 C 
HETATM   19  C   UNK N   1      26.772  15.145   5.344  0.00  0.00     0.164 C 
HETATM   20  C   UNK N   1      33.899  14.980   2.574  0.00  0.00     0.210 C 
HETATM   21  O   UNK N   1      34.821  14.327   3.422  0.00  0.00    -0.380 OA
HETATM   22  C   UNK N   1      32.306  17.673   4.089  0.00  0.00     0.027 C 
ENDROOT
BRANCH  19  23
HETATM   23  O   UNK N   1      25.608  14.541   5.718  0.00  0.00    -0.309 OA
BRANCH  23  24
HETATM   24  C   UNK N   1      24.412  15.122   5.446  0.00  0.00     0.290 C 
HETATM   25  O   UNK N   1      24.149  16.254   5.829  0.00  0.00    -0.262 OA
BRANCH  24  26
HETATM   26  C   UNK N   1      23.384  14.332   4.741  0.00  0.00     0.244 C 
BRANCH  26  27
HETATM   27  C   UNK N   1      23.246  14.777   3.279  0.00  0.00     0.156 C 
BRANCH  27  28
HETATM   28  C   UNK N   1      22.047  15.558   2.819  0.00  0.00    -0.033 A 
HETATM   29  C   UNK N   1      21.849  16.875   3.271  0.00  0.00     0.009 A 
HETATM   30  C   UNK N   1      20.842  17.669   2.718  0.00  0.00     0.001 A 
HETATM   31  C   UNK N   1      20.030  17.155   1.703  0.00  0.00     0.000 A 
HETATM   32  C   UNK N   1      20.227  15.848   1.245  0.00  0.00     0.001 A 
HETATM   33  C   UNK N   1      21.245  15.057   1.789  0.00  0.00     0.009 A 
ENDBRANCH  27  28
BRANCH  27  34
HETATM   34  N   UNK N   1      24.428  15.398   2.735  0.00  0.00    -0.345 N 
HETATM   35  C   UNK N   1      25.035  14.895   1.631  0.00  0.00     0.252 C 
HETATM   36  O   UNK N   1      25.802  15.610   1.005  0.00  0.00    -0.268 OA
HETATM   37  H   UNK N   1      24.800  16.198   3.171  0.00  0.00     0.163 HD
BRANCH  35  38
HETATM   38  C   UNK N   1      24.737  13.525   1.131  0.00  0.00     0.032 A 
HETATM   39  C   UNK N   1      25.388  12.414   1.681  0.00  0.00     0.017 A 
HETATM   40  C   UNK N   1      25.105  11.128   1.207  0.00  0.00     0.001 A 
HETATM   41  C   UNK N   1      24.147  10.942   0.206  0.00  0.00     0.000 A 
HETATM   42  C   UNK N   1      23.475  12.040  -0.330  0.00  0.00     0.001 A 
HETATM   43  C   UNK N   1      23.774  13.322   0.126  0.00  0.00     0.017 A 
ENDBRANCH  35  38
ENDBRANCH  27  34
ENDBRANCH  26  27
BRANCH  26  44
HETATM   44  O   UNK N   1      22.166  14.468   5.404  0.00  0.00    -0.383 OA
HETATM   45  H   UNK N   1      21.455  14.565   6.058  0.00  0.00     0.210 HD
ENDBRANCH  26  44
ENDBRANCH  24  26
ENDBRANCH  23  24
ENDBRANCH  19  23
BRANCH  14  46
HETATM   46  O   UNK N   1      27.927  16.063   2.865  0.00  0.00    -0.386 OA
HETATM   47  H   UNK N   1      27.140  16.575   2.623  0.00  0.00     0.210 HD
ENDBRANCH  14  46
BRANCH  13  48
HETATM   48  O   UNK N   1      29.877  13.431   2.699  0.00  0.00    -0.308 OA
BRANCH  48  49
HETATM   49  C   UNK N   1      29.164  12.980   1.611  0.00  0.00     0.293 C 
HETATM   50  O   UNK N   1      28.566  13.774   0.898  0.00  0.00    -0.259 OA
BRANCH  49  51
HETATM   51  C   UNK N   1      29.041  11.529   1.299  0.00  0.00     0.039 A 
HETATM   52  C   UNK N   1      28.661  10.631   2.314  0.00  0.00     0.017 A 
HETATM   53  C   UNK N   1      28.519   9.267   2.045  0.00  0.00     0.001 A 
HETATM   54  C   UNK N   1      28.735   8.786   0.753  0.00  0.00     0.000 A 
HETATM   55  C   UNK N   1      29.120   9.667  -0.262  0.00  0.00     0.001 A 
HETATM   56  C   UNK N   1      29.285  11.030   0.014  0.00  0.00     0.017 A 
ENDBRANCH  49  51
ENDBRANCH  48  49
ENDBRANCH  13  48
BRANCH   4  57
HETATM   57  O   UNK N   1      29.562  18.398   7.331  0.00  0.00    -0.304 OA
BRANCH  57  58
HETATM   58  C   UNK N   1      28.969  18.705   8.513  0.00  0.00     0.255 C 
HETATM   59  O   UNK N   1      27.833  19.149   8.557  0.00  0.00    -0.266 OA
HETATM   60  C   UNK N   1      29.721  18.494   9.783  0.00  0.00     0.126 C 
ENDBRANCH  57  58
ENDBRANCH   4  57
BRANCH  11  61
HETATM   61  O   UNK N   1      32.361  13.313   2.248  0.00  0.00    -0.281 OA
BRANCH  61  62
HETATM   62  C   UNK N   1      32.791  12.018   2.184  0.00  0.00     0.407 C 
HETATM   63  O   UNK N   1      32.260  11.149   2.848  0.00  0.00    -0.229 OA
BRANCH  62  64
HETATM   64  O   UNK N   1      33.802  11.695   1.343  0.00  0.00    -0.303 OA
HETATM   65  C   UNK N   1      34.990  11.180   1.798  0.00  0.00     0.215 C 
ENDBRANCH  62  64
ENDBRANCH  61  62
ENDBRANCH  11  61
BRANCH   8  66
HETATM   66  O   UNK N   1      34.284  16.882   6.014  0.00  0.00    -0.394 OA
HETATM   67  H   UNK N   1      35.091  16.583   6.462  0.00  0.00     0.210 HD
ENDBRANCH   8  66
TORSDOF 18
ENDMDL
