MODEL 1
REMARK VINA RESULT:      -3.5      0.000      0.000
REMARK  0 active torsions:
REMARK  status: ('A' for Active; 'I' for Inactive)
ROOT
HETATM    1  C   UNK N   1      26.743  24.447  -3.756  0.00  0.00     0.152 C 
HETATM    2  C   UNK N   1      25.433  27.887  -4.424  0.00  0.00     0.029 A 
HETATM    3  C   UNK N   1      24.910  27.097  -5.639  0.00  0.00     0.104 A 
HETATM    4  C   UNK N   1      26.226  26.902  -3.540  0.00  0.00     0.125 A 
HETATM    5  C   UNK N   1      25.431  25.744  -5.366  0.00  0.00     0.219 A 
HETATM    6  N   UNK N   1      26.134  25.659  -4.237  0.00  0.00    -0.356 N 
HETATM    7  O   UNK N   1      25.241  24.788  -6.102  0.00  0.00    -0.273 OA
ENDROOT
TORSDOF 0
ENDMDL
MODEL 2
REMARK VINA RESULT:      -3.5     19.755     20.846
REMARK  0 active torsions:
REMARK  status: ('A' for Active; 'I' for Inactive)
ROOT
HETATM    1  C   UNK N   1      24.783  13.155   9.369  0.00  0.00     0.152 C 
HETATM    2  C   UNK N   1      21.365  12.503  10.744  0.00  0.00     0.029 A 
HETATM    3  C   UNK N   1      22.275  11.950  11.857  0.00  0.00     0.104 A 
HETATM    4  C   UNK N   1      22.280  13.046   9.627  0.00  0.00     0.125 A 
HETATM    5  C   UNK N   1      23.618  12.211  11.305  0.00  0.00     0.219 A 
HETATM    6  N   UNK N   1      23.600  12.799  10.109  0.00  0.00    -0.356 N 
HETATM    7  O   UNK N   1      24.653  11.919  11.885  0.00  0.00    -0.273 OA
ENDROOT
TORSDOF 0
ENDMDL
MODEL 3
REMARK VINA RESULT:      -3.4     20.540     21.302
REMARK  0 active torsions:
REMARK  status: ('A' for Active; 'I' for Inactive)
ROOT
HETATM    1  C   UNK N   1      23.241  11.916  13.149  0.00  0.00     0.152 C 
HETATM    2  C   UNK N   1      24.101  12.222   9.521  0.00  0.00     0.029 A 
HETATM    3  C   UNK N   1      22.560  12.260   9.496  0.00  0.00     0.104 A 
HETATM    4  C   UNK N   1      24.534  12.080  10.994  0.00  0.00     0.125 A 
HETATM    5  C   UNK N   1      22.232  12.139  10.929  0.00  0.00     0.219 A 
HETATM    6  N   UNK N   1      23.303  12.043  11.716  0.00  0.00    -0.356 N 
HETATM    7  O   UNK N   1      21.089  12.126  11.359  0.00  0.00    -0.273 OA
ENDROOT
TORSDOF 0
ENDMDL
MODEL 4
REMARK VINA RESULT:      -3.4     18.883     20.111
REMARK  0 active torsions:
REMARK  status: ('A' for Active; 'I' for Inactive)
ROOT
HETATM    1  C   UNK N   1      21.627  14.673   8.322  0.00  0.00     0.152 C 
HETATM    2  C   UNK N   1      22.482  12.216  11.009  0.00  0.00     0.029 A 
HETATM    3  C   UNK N   1      20.962  12.386  11.195  0.00  0.00     0.104 A 
HETATM    4  C   UNK N   1      22.908  13.119   9.833  0.00  0.00     0.125 A 
HETATM    5  C   UNK N   1      20.636  13.355  10.132  0.00  0.00     0.219 A 
HETATM    6  N   UNK N   1      21.691  13.736   9.413  0.00  0.00    -0.356 N 
HETATM    7  O   UNK N   1      19.506  13.773   9.925  0.00  0.00    -0.273 OA
ENDROOT
TORSDOF 0
ENDMDL
MODEL 5
REMARK VINA RESULT:      -3.4     20.681     21.423
REMARK  0 active torsions:
REMARK  status: ('A' for Active; 'I' for Inactive)
ROOT
HETATM    1  C   UNK N   1      20.801  12.262  11.262  0.00  0.00     0.152 C 
HETATM    2  C   UNK N   1      24.226  12.358   9.760  0.00  0.00     0.029 A 
HETATM    3  C   UNK N   1      24.526  12.041  11.238  0.00  0.00     0.104 A 
HETATM    4  C   UNK N   1      22.695  12.479   9.616  0.00  0.00     0.125 A 
HETATM    5  C   UNK N   1      23.171  12.006  11.820  0.00  0.00     0.219 A 
HETATM    6  N   UNK N   1      22.203  12.243  10.935  0.00  0.00    -0.356 N 
HETATM    7  O   UNK N   1      22.951  11.780  13.000  0.00  0.00    -0.273 OA
ENDROOT
TORSDOF 0
ENDMDL
MODEL 6
REMARK VINA RESULT:      -3.3     17.442     18.485
REMARK  0 active torsions:
REMARK  status: ('A' for Active; 'I' for Inactive)
ROOT
HETATM    1  C   UNK N   1      33.799  15.127   9.957  0.00  0.00     0.152 C 
HETATM    2  C   UNK N   1      33.360  17.742   7.318  0.00  0.00     0.029 A 
HETATM    3  C   UNK N   1      34.473  18.348   8.195  0.00  0.00     0.104 A 
HETATM    4  C   UNK N   1      32.973  16.383   7.936  0.00  0.00     0.125 A 
HETATM    5  C   UNK N   1      34.638  17.310   9.230  0.00  0.00     0.219 A 
HETATM    6  N   UNK N   1      33.825  16.265   9.075  0.00  0.00    -0.356 N 
HETATM    7  O   UNK N   1      35.442  17.395  10.146  0.00  0.00    -0.273 OA
ENDROOT
TORSDOF 0
ENDMDL
MODEL 7
REMARK VINA RESULT:      -3.3     15.276     16.136
REMARK  0 active torsions:
REMARK  status: ('A' for Active; 'I' for Inactive)
ROOT
HETATM    1  C   UNK N   1      32.634  16.999   4.720  0.00  0.00     0.152 C 
HETATM    2  C   UNK N   1      31.413  17.551   8.213  0.00  0.00     0.029 A 
HETATM    3  C   UNK N   1      32.900  17.941   8.322  0.00  0.00     0.104 A 
HETATM    4  C   UNK N   1      31.152  17.132   6.752  0.00  0.00     0.125 A 
HETATM    5  C   UNK N   1      33.371  17.720   6.941  0.00  0.00     0.219 A 
HETATM    6  N   UNK N   1      32.420  17.286   6.114  0.00  0.00    -0.356 N 
HETATM    7  O   UNK N   1      34.523  17.913   6.584  0.00  0.00    -0.273 OA
ENDROOT
TORSDOF 0
ENDMDL
MODEL 8
REMARK VINA RESULT:      -3.3     19.996     20.934
REMARK  0 active torsions:
REMARK  status: ('A' for Active; 'I' for Inactive)
ROOT
HETATM    1  C   UNK N   1      23.099  11.865  12.806  0.00  0.00     0.152 C 
HETATM    2  C   UNK N   1      21.638  12.642   9.452  0.00  0.00     0.029 A 
HETATM    3  C   UNK N   1      23.151  12.738   9.178  0.00  0.00     0.104 A 
HETATM    4  C   UNK N   1      21.460  12.281  10.940  0.00  0.00     0.125 A 
HETATM    5  C   UNK N   1      23.717  12.430  10.505  0.00  0.00     0.219 A 
HETATM    6  N   UNK N   1      22.795  12.188  11.437  0.00  0.00    -0.356 N 
HETATM    7  O   UNK N   1      24.916  12.399  10.735  0.00  0.00    -0.273 OA
ENDROOT
TORSDOF 0
ENDMDL
MODEL 9
REMARK VINA RESULT:      -3.3     14.783     15.639
REMARK  0 active torsions:
REMARK  status: ('A' for Active; 'I' for Inactive)
ROOT
HETATM    1  C   UNK N   1      32.424  17.113   8.202  0.00  0.00     0.152 C 
HETATM    2  C   UNK N   1      31.512  17.347   4.582  0.00  0.00     0.029 A 
HETATM    3  C   UNK N   1      33.027  17.626   4.555  0.00  0.00     0.104 A 
HETATM    4  C   UNK N   1      31.112  17.112   6.052  0.00  0.00     0.125 A 
HETATM    5  C   UNK N   1      33.376  17.531   5.985  0.00  0.00     0.219 A 
HETATM    6  N   UNK N   1      32.336  17.255   6.772  0.00  0.00    -0.356 N 
HETATM    7  O   UNK N   1      34.509  17.690   6.414  0.00  0.00    -0.273 OA
ENDROOT
TORSDOF 0
ENDMDL
