MODEL 1
REMARK VINA RESULT:      -6.6      0.000      0.000
REMARK WARNING: 32 MAX_TORS EXCEEDED!!!
REMARK  33 active torsions:
REMARK  status: ('A' for Active; 'I' for Inactive)
REMARK    1  A    between atoms: C_1  and  C_2 
REMARK    2  A    between atoms: C_1  and  N_6 
REMARK    3  A    between atoms: C_2  and  C_3 
REMARK    4  A    between atoms: C_2  and  O_5 
REMARK    5  A    between atoms: C_3  and  O_4 
REMARK       I    between atoms: N_6  and  C_7 
REMARK    6  A    between atoms: C_7  and  C_9 
REMARK    7  A    between atoms: C_11  and  C_52 
REMARK    8  A    between atoms: C_13  and  N_16 
REMARK    9  A    between atoms: N_16  and  C_17 
REMARK   10  A    between atoms: N_16  and  C_49 
REMARK   11  A    between atoms: C_17  and  C_18 
REMARK   12  A    between atoms: C_18  and  C_19 
REMARK   13  A    between atoms: C_18  and  O_48 
REMARK   14  A    between atoms: C_19  and  N_20 
REMARK   15  A    between atoms: N_20  and  C_21 
REMARK   16  A    between atoms: N_20  and  C_23 
REMARK   17  A    between atoms: C_25  and  C_39 
REMARK   18  A    between atoms: C_27  and  C_30 
REMARK       I    between atoms: C_30  and  N_32 
REMARK   19  A    between atoms: N_32  and  C_33 
REMARK   20  A    between atoms: C_33  and  C_34 
REMARK   21  A    between atoms: C_34  and  C_35 
REMARK   22  A    between atoms: C_34  and  O_37 
REMARK   23  A    between atoms: C_35  and  O_36 
REMARK       I    between atoms: C_39  and  N_41 
REMARK   24  A    between atoms: N_41  and  C_42 
REMARK   25  A    between atoms: C_42  and  C_43 
REMARK   26  A    between atoms: C_43  and  C_44 
REMARK   27  A    between atoms: C_43  and  O_46 
REMARK   28  A    between atoms: C_44  and  O_45 
REMARK       I    between atoms: C_52  and  N_54 
REMARK   29  A    between atoms: N_54  and  C_55 
REMARK   30  A    between atoms: C_55  and  C_56 
REMARK   31  A    between atoms: C_56  and  C_57 
REMARK   32  A    between atoms: C_56  and  O_59 
REMARK   33  A    between atoms: C_57  and  O_58 
ROOT
HETATM    1  C   UNK N   1      27.099  15.292   2.931  0.00  0.00     0.154 C 
ENDROOT
BRANCH   1   2
HETATM    2  C   UNK N   1      25.775  15.852   2.608  0.00  0.00     0.165 C 
BRANCH   2   3
HETATM    3  N   UNK N   1      24.735  14.905   2.781  0.00  0.00    -0.320 N 
BRANCH   3   4
HETATM    4  C   UNK N   1      24.075  14.869   4.064  0.00  0.00     0.072 C 
HETATM    5  C   UNK N   1      23.350  16.013   4.469  0.00  0.00     0.051 C 
HETATM    6  C   UNK N   1      22.321  15.945   5.388  0.00  0.00     0.068 C 
HETATM    7  I   UNK N   1      24.389  17.936   4.412  0.00  0.00    -0.041 I 
HETATM    8  C   UNK N   1      22.168  14.726   6.127  0.00  0.00     0.040 C 
HETATM    9  C   UNK N   1      23.028  13.580   5.858  0.00  0.00     0.068 C 
HETATM   10  I   UNK N   1      20.950  14.825   7.882  0.00  0.00    -0.042 I 
HETATM   11  C   UNK N   1      24.024  13.718   4.848  0.00  0.00     0.051 C 
HETATM   12  I   UNK N   1      25.764  12.359   4.695  0.00  0.00    -0.041 I 
BRANCH   6  13
HETATM   13  C   UNK N   1      21.411  17.182   5.548  0.00  0.00     0.254 C 
HETATM   14  O   UNK N   1      21.522  17.881   6.535  0.00  0.00    -0.268 OA
HETATM   15  N   UNK N   1      20.369  17.487   4.709  0.00  0.00    -0.354 N 
HETATM   16  H   UNK N   1      19.882  18.314   4.931  0.00  0.00     0.162 HD
BRANCH  15  17
HETATM   17  C   UNK N   1      19.874  16.778   3.540  0.00  0.00     0.156 C 
BRANCH  17  18
HETATM   18  C   UNK N   1      19.893  17.670   2.272  0.00  0.00     0.159 C 
BRANCH  18  19
HETATM   19  C   UNK N   1      19.962  16.896   0.955  0.00  0.00     0.197 C 
BRANCH  19  20
HETATM   20  O   UNK N   1      20.312  17.748  -0.093  0.00  0.00    -0.398 OA
HETATM   21  H   UNK N   1      20.061  17.528  -1.003  0.00  0.00     0.209 HD
ENDBRANCH  19  20
ENDBRANCH  18  19
BRANCH  18  22
HETATM   22  O   UNK N   1      18.773  18.506   2.253  0.00  0.00    -0.392 OA
HETATM   23  H   UNK N   1      18.755  19.399   1.874  0.00  0.00     0.210 HD
ENDBRANCH  18  22
ENDBRANCH  17  18
ENDBRANCH  15  17
ENDBRANCH   6  13
BRANCH   9  24
HETATM   24  C   UNK N   1      22.925  12.222   6.544  0.00  0.00     0.254 C 
HETATM   25  N   UNK N   1      23.464  11.891   7.738  0.00  0.00    -0.354 N 
HETATM   26  H   UNK N   1      23.241  10.983   8.046  0.00  0.00     0.162 HD
HETATM   27  O   UNK N   1      22.172  11.384   6.070  0.00  0.00    -0.268 OA
BRANCH  25  28
HETATM   28  C   UNK N   1      24.303  12.629   8.638  0.00  0.00     0.156 C 
BRANCH  28  29
HETATM   29  C   UNK N   1      23.623  12.539  10.004  0.00  0.00     0.159 C 
BRANCH  29  30
HETATM   30  C   UNK N   1      24.539  12.109  11.131  0.00  0.00     0.197 C 
BRANCH  30  31
HETATM   31  O   UNK N   1      25.589  13.025  11.226  0.00  0.00    -0.398 OA
HETATM   32  H   UNK N   1      26.172  13.799  11.178  0.00  0.00     0.209 HD
ENDBRANCH  30  31
ENDBRANCH  29  30
BRANCH  29  33
HETATM   33  O   UNK N   1      22.447  11.797   9.969  0.00  0.00    -0.392 OA
HETATM   34  H   UNK N   1      21.890  11.486   9.238  0.00  0.00     0.210 HD
ENDBRANCH  29  33
ENDBRANCH  28  29
ENDBRANCH  25  28
ENDBRANCH   9  24
ENDBRANCH   3   4
BRANCH   3  35
HETATM   35  C   UNK N   1      24.120  14.574   1.596  0.00  0.00     0.356 C 
HETATM   36  O   UNK N   1      24.435  13.617   0.917  0.00  0.00    -0.283 OA
ENDBRANCH   3  35
ENDBRANCH   2   3
ENDBRANCH   1   2
BRANCH   1  37
HETATM   37  C   UNK N   1      27.729  16.395   3.669  0.00  0.00     0.159 C 
BRANCH  37  38
HETATM   38  N   UNK N   1      29.021  16.016   4.130  0.00  0.00    -0.343 N 
BRANCH  38  39
HETATM   39  C   UNK N   1      29.981  16.771   3.516  0.00  0.00     0.351 C 
HETATM   40  O   UNK N   1      30.473  16.519   2.440  0.00  0.00    -0.283 OA
ENDBRANCH  38  39
BRANCH  38  41
HETATM   41  C   UNK N   1      29.142  15.191   5.351  0.00  0.00     0.168 C 
HETATM   42  C   UNK N   1      28.607  15.845   6.494  0.00  0.00     0.029 C 
HETATM   43  C   UNK N   1      29.450  16.700   7.216  0.00  0.00     0.064 C 
HETATM   44  I   UNK N   1      26.525  15.669   6.977  0.00  0.00    -0.046 I 
HETATM   45  C   UNK N   1      30.841  16.605   7.004  0.00  0.00     0.040 C 
HETATM   46  C   UNK N   1      31.329  15.510   6.243  0.00  0.00     0.064 C 
HETATM   47  I   UNK N   1      32.163  17.894   8.063  0.00  0.00    -0.042 I 
HETATM   48  C   UNK N   1      30.432  14.710   5.515  0.00  0.00     0.029 C 
HETATM   49  I   UNK N   1      30.985  12.900   4.471  0.00  0.00    -0.046 I 
BRANCH  43  50
HETATM   50  C   UNK N   1      28.868  17.706   8.139  0.00  0.00     0.254 C 
HETATM   51  O   UNK N   1      28.840  17.459   9.334  0.00  0.00    -0.268 OA
HETATM   52  N   UNK N   1      28.373  18.889   7.704  0.00  0.00    -0.354 N 
HETATM   53  H   UNK N   1      28.095  19.559   8.369  0.00  0.00     0.162 HD
BRANCH  52  54
HETATM   54  C   UNK N   1      28.237  19.203   6.308  0.00  0.00     0.156 C 
BRANCH  54  55
HETATM   55  C   UNK N   1      27.446  20.492   6.184  0.00  0.00     0.159 C 
BRANCH  55  56
HETATM   56  C   UNK N   1      27.069  20.736   4.732  0.00  0.00     0.197 C 
BRANCH  56  57
HETATM   57  O   UNK N   1      27.874  19.964   3.895  0.00  0.00    -0.398 OA
HETATM   58  H   UNK N   1      27.915  18.996   3.877  0.00  0.00     0.209 HD
ENDBRANCH  56  57
ENDBRANCH  55  56
BRANCH  55  59
HETATM   59  O   UNK N   1      26.297  20.414   6.970  0.00  0.00    -0.392 OA
HETATM   60  H   UNK N   1      25.541  21.005   7.107  0.00  0.00     0.210 HD
ENDBRANCH  55  59
ENDBRANCH  54  55
ENDBRANCH  52  54
ENDBRANCH  43  50
BRANCH  46  61
HETATM   61  C   UNK N   1      32.761  15.209   6.168  0.00  0.00     0.254 C 
HETATM   62  O   UNK N   1      33.424  15.682   5.261  0.00  0.00    -0.268 OA
HETATM   63  N   UNK N   1      33.363  14.428   7.093  0.00  0.00    -0.354 N 
HETATM   64  H   UNK N   1      34.291  14.140   6.939  0.00  0.00     0.162 HD
BRANCH  63  65
HETATM   65  C   UNK N   1      32.693  13.999   8.302  0.00  0.00     0.156 C 
BRANCH  65  66
HETATM   66  C   UNK N   1      33.613  14.235   9.489  0.00  0.00     0.159 C 
BRANCH  66  67
HETATM   67  C   UNK N   1      34.848  14.986   9.008  0.00  0.00     0.197 C 
BRANCH  67  68
HETATM   68  O   UNK N   1      35.840  14.097   8.603  0.00  0.00    -0.398 OA
HETATM   69  H   UNK N   1      36.175  14.043   7.694  0.00  0.00     0.209 HD
ENDBRANCH  67  68
ENDBRANCH  66  67
BRANCH  66  70
HETATM   70  O   UNK N   1      32.937  14.983  10.458  0.00  0.00    -0.392 OA
HETATM   71  H   UNK N   1      32.616  15.898  10.492  0.00  0.00     0.210 HD
ENDBRANCH  66  70
ENDBRANCH  65  66
ENDBRANCH  63  65
ENDBRANCH  46  61
ENDBRANCH  38  41
ENDBRANCH  37  38
ENDBRANCH   1  37
BRANCH   1  72
HETATM   72  O   UNK N   1      27.837  14.931   1.801  0.00  0.00    -0.392 OA
HETATM   73  H   UNK N   1      28.196  15.368   1.014  0.00  0.00     0.210 HD
ENDBRANCH   1  72
TORSDOF 33
ENDMDL
MODEL 2
REMARK VINA RESULT:      -6.5      2.574      6.514
REMARK WARNING: 32 MAX_TORS EXCEEDED!!!
REMARK  33 active torsions:
REMARK  status: ('A' for Active; 'I' for Inactive)
REMARK    1  A    between atoms: C_1  and  C_2 
REMARK    2  A    between atoms: C_1  and  N_6 
REMARK    3  A    between atoms: C_2  and  C_3 
REMARK    4  A    between atoms: C_2  and  O_5 
REMARK    5  A    between atoms: C_3  and  O_4 
REMARK       I    between atoms: N_6  and  C_7 
REMARK    6  A    between atoms: C_7  and  C_9 
REMARK    7  A    between atoms: C_11  and  C_52 
REMARK    8  A    between atoms: C_13  and  N_16 
REMARK    9  A    between atoms: N_16  and  C_17 
REMARK   10  A    between atoms: N_16  and  C_49 
REMARK   11  A    between atoms: C_17  and  C_18 
REMARK   12  A    between atoms: C_18  and  C_19 
REMARK   13  A    between atoms: C_18  and  O_48 
REMARK   14  A    between atoms: C_19  and  N_20 
REMARK   15  A    between atoms: N_20  and  C_21 
REMARK   16  A    between atoms: N_20  and  C_23 
REMARK   17  A    between atoms: C_25  and  C_39 
REMARK   18  A    between atoms: C_27  and  C_30 
REMARK       I    between atoms: C_30  and  N_32 
REMARK   19  A    between atoms: N_32  and  C_33 
REMARK   20  A    between atoms: C_33  and  C_34 
REMARK   21  A    between atoms: C_34  and  C_35 
REMARK   22  A    between atoms: C_34  and  O_37 
REMARK   23  A    between atoms: C_35  and  O_36 
REMARK       I    between atoms: C_39  and  N_41 
REMARK   24  A    between atoms: N_41  and  C_42 
REMARK   25  A    between atoms: C_42  and  C_43 
REMARK   26  A    between atoms: C_43  and  C_44 
REMARK   27  A    between atoms: C_43  and  O_46 
REMARK   28  A    between atoms: C_44  and  O_45 
REMARK       I    between atoms: C_52  and  N_54 
REMARK   29  A    between atoms: N_54  and  C_55 
REMARK   30  A    between atoms: C_55  and  C_56 
REMARK   31  A    between atoms: C_56  and  C_57 
REMARK   32  A    between atoms: C_56  and  O_59 
REMARK   33  A    between atoms: C_57  and  O_58 
ROOT
HETATM    1  C   UNK N   1      28.598  16.119   3.563  0.00  0.00     0.154 C 
ENDROOT
BRANCH   1   2
HETATM    2  C   UNK N   1      27.383  16.943   3.684  0.00  0.00     0.165 C 
BRANCH   2   3
HETATM    3  N   UNK N   1      26.496  16.449   4.672  0.00  0.00    -0.320 N 
BRANCH   3   4
HETATM    4  C   UNK N   1      25.094  16.387   4.334  0.00  0.00     0.072 C 
HETATM    5  C   UNK N   1      24.566  15.143   3.921  0.00  0.00     0.051 C 
HETATM    6  C   UNK N   1      23.224  14.837   4.038  0.00  0.00     0.068 C 
HETATM    7  I   UNK N   1      25.594  14.104   2.294  0.00  0.00    -0.041 I 
HETATM    8  C   UNK N   1      22.322  15.906   4.350  0.00  0.00     0.040 C 
HETATM    9  C   UNK N   1      22.823  17.252   4.604  0.00  0.00     0.068 C 
HETATM   10  I   UNK N   1      20.246  15.531   4.000  0.00  0.00    -0.042 I 
HETATM   11  C   UNK N   1      24.230  17.465   4.522  0.00  0.00     0.051 C 
HETATM   12  I   UNK N   1      25.121  19.477   4.289  0.00  0.00    -0.041 I 
BRANCH   6  13
HETATM   13  C   UNK N   1      22.796  13.368   3.830  0.00  0.00     0.254 C 
HETATM   14  O   UNK N   1      22.348  13.023   2.755  0.00  0.00    -0.268 OA
HETATM   15  N   UNK N   1      22.754  12.428   4.828  0.00  0.00    -0.354 N 
HETATM   16  H   UNK N   1      22.469  11.529   4.544  0.00  0.00     0.162 HD
BRANCH  15  17
HETATM   17  C   UNK N   1      23.067  12.554   6.243  0.00  0.00     0.156 C 
BRANCH  17  18
HETATM   18  C   UNK N   1      22.030  11.819   7.132  0.00  0.00     0.159 C 
BRANCH  18  19
HETATM   19  C   UNK N   1      21.449  12.671   8.260  0.00  0.00     0.197 C 
BRANCH  19  20
HETATM   20  O   UNK N   1      22.337  12.728   9.335  0.00  0.00    -0.398 OA
HETATM   21  H   UNK N   1      22.043  13.073  10.192  0.00  0.00     0.209 HD
ENDBRANCH  19  20
ENDBRANCH  18  19
BRANCH  18  22
HETATM   22  O   UNK N   1      20.986  11.324   6.347  0.00  0.00    -0.392 OA
HETATM   23  H   UNK N   1      20.337  10.665   6.641  0.00  0.00     0.210 HD
ENDBRANCH  18  22
ENDBRANCH  17  18
ENDBRANCH  15  17
ENDBRANCH   6  13
BRANCH   9  24
HETATM   24  C   UNK N   1      21.965  18.452   4.991  0.00  0.00     0.254 C 
HETATM   25  N   UNK N   1      21.314  19.273   4.138  0.00  0.00    -0.354 N 
HETATM   26  H   UNK N   1      20.763  19.959   4.578  0.00  0.00     0.162 HD
HETATM   27  O   UNK N   1      21.703  18.625   6.172  0.00  0.00    -0.268 OA
BRANCH  25  28
HETATM   28  C   UNK N   1      21.284  19.321   2.705  0.00  0.00     0.156 C 
BRANCH  28  29
HETATM   29  C   UNK N   1      21.031  20.785   2.346  0.00  0.00     0.159 C 
BRANCH  29  30
HETATM   30  C   UNK N   1      20.668  21.020   0.893  0.00  0.00     0.197 C 
BRANCH  30  31
HETATM   31  O   UNK N   1      20.672  19.791   0.230  0.00  0.00    -0.398 OA
HETATM   32  H   UNK N   1      20.521  19.043  -0.369  0.00  0.00     0.209 HD
ENDBRANCH  30  31
ENDBRANCH  29  30
BRANCH  29  33
HETATM   33  O   UNK N   1      22.051  21.626   2.776  0.00  0.00    -0.392 OA
HETATM   34  H   UNK N   1      22.049  22.521   3.151  0.00  0.00     0.210 HD
ENDBRANCH  29  33
ENDBRANCH  28  29
ENDBRANCH  25  28
ENDBRANCH   9  24
ENDBRANCH   3   4
BRANCH   3  35
HETATM   35  C   UNK N   1      27.110  15.585   5.550  0.00  0.00     0.356 C 
HETATM   36  O   UNK N   1      27.218  15.799   6.740  0.00  0.00    -0.283 OA
ENDBRANCH   3  35
ENDBRANCH   2   3
ENDBRANCH   1   2
BRANCH   1  37
HETATM   37  C   UNK N   1      29.632  17.013   4.103  0.00  0.00     0.159 C 
BRANCH  37  38
HETATM   38  N   UNK N   1      30.849  16.304   4.310  0.00  0.00    -0.343 N 
BRANCH  38  39
HETATM   39  C   UNK N   1      31.845  16.844   3.545  0.00  0.00     0.351 C 
HETATM   40  O   UNK N   1      32.407  17.889   3.781  0.00  0.00    -0.283 OA
ENDBRANCH  38  39
BRANCH  38  41
HETATM   41  C   UNK N   1      30.971  15.397   5.470  0.00  0.00     0.168 C 
HETATM   42  C   UNK N   1      31.767  15.956   6.507  0.00  0.00     0.029 C 
HETATM   43  C   UNK N   1      33.153  15.761   6.448  0.00  0.00     0.064 C 
HETATM   44  I   UNK N   1      30.883  17.214   8.002  0.00  0.00    -0.046 I 
HETATM   45  C   UNK N   1      33.653  14.755   5.596  0.00  0.00     0.040 C 
HETATM   46  C   UNK N   1      32.726  13.850   5.014  0.00  0.00     0.064 C 
HETATM   47  I   UNK N   1      35.752  14.432   5.458  0.00  0.00    -0.042 I 
HETATM   48  C   UNK N   1      31.349  14.121   5.081  0.00  0.00     0.029 C 
HETATM   49  I   UNK N   1      29.806  12.758   4.422  0.00  0.00    -0.046 I 
BRANCH  43  50
HETATM   50  C   UNK N   1      34.056  16.639   7.235  0.00  0.00     0.254 C 
HETATM   51  O   UNK N   1      34.440  17.684   6.736  0.00  0.00    -0.268 OA
HETATM   52  N   UNK N   1      34.464  16.322   8.487  0.00  0.00    -0.354 N 
HETATM   53  H   UNK N   1      34.978  16.988   8.999  0.00  0.00     0.162 HD
BRANCH  52  54
HETATM   54  C   UNK N   1      34.177  15.052   9.096  0.00  0.00     0.156 C 
BRANCH  54  55
HETATM   55  C   UNK N   1      34.627  15.105  10.544  0.00  0.00     0.159 C 
BRANCH  55  56
HETATM   56  C   UNK N   1      35.322  16.427  10.827  0.00  0.00     0.197 C 
BRANCH  56  57
HETATM   57  O   UNK N   1      36.704  16.251  10.810  0.00  0.00    -0.398 OA
HETATM   58  H   UNK N   1      37.313  16.576  10.130  0.00  0.00     0.209 HD
ENDBRANCH  56  57
ENDBRANCH  55  56
BRANCH  55  59
HETATM   59  O   UNK N   1      33.525  14.954  11.384  0.00  0.00    -0.392 OA
HETATM   60  H   UNK N   1      33.262  15.367  12.221  0.00  0.00     0.210 HD
ENDBRANCH  55  59
ENDBRANCH  54  55
ENDBRANCH  52  54
ENDBRANCH  43  50
BRANCH  46  61
HETATM   61  C   UNK N   1      33.174  12.646   4.310  0.00  0.00     0.254 C 
HETATM   62  O   UNK N   1      33.410  12.707   3.114  0.00  0.00    -0.268 OA
HETATM   63  N   UNK N   1      33.343  11.474   4.961  0.00  0.00    -0.354 N 
HETATM   64  H   UNK N   1      33.516  10.660   4.435  0.00  0.00     0.162 HD
BRANCH  63  65
HETATM   65  C   UNK N   1      33.281  11.371   6.403  0.00  0.00     0.156 C 
BRANCH  65  66
HETATM   66  C   UNK N   1      32.787   9.983   6.780  0.00  0.00     0.159 C 
BRANCH  66  67
HETATM   67  C   UNK N   1      32.939   9.803   8.284  0.00  0.00     0.197 C 
BRANCH  67  68
HETATM   68  O   UNK N   1      31.723  10.005   8.932  0.00  0.00    -0.398 OA
HETATM   69  H   UNK N   1      31.143  10.764   8.764  0.00  0.00     0.209 HD
ENDBRANCH  67  68
ENDBRANCH  66  67
BRANCH  66  70
HETATM   70  O   UNK N   1      31.445   9.852   6.409  0.00  0.00    -0.392 OA
HETATM   71  H   UNK N   1      30.904   9.104   6.111  0.00  0.00     0.210 HD
ENDBRANCH  66  70
ENDBRANCH  65  66
ENDBRANCH  63  65
ENDBRANCH  46  61
ENDBRANCH  38  41
ENDBRANCH  37  38
ENDBRANCH   1  37
BRANCH   1  72
HETATM   72  O   UNK N   1      28.876  15.734   2.249  0.00  0.00    -0.392 OA
HETATM   73  H   UNK N   1      29.644  15.722   1.656  0.00  0.00     0.210 HD
ENDBRANCH   1  72
TORSDOF 33
ENDMDL
MODEL 3
REMARK VINA RESULT:      -6.4      2.162      4.045
REMARK WARNING: 32 MAX_TORS EXCEEDED!!!
REMARK  33 active torsions:
REMARK  status: ('A' for Active; 'I' for Inactive)
REMARK    1  A    between atoms: C_1  and  C_2 
REMARK    2  A    between atoms: C_1  and  N_6 
REMARK    3  A    between atoms: C_2  and  C_3 
REMARK    4  A    between atoms: C_2  and  O_5 
REMARK    5  A    between atoms: C_3  and  O_4 
REMARK       I    between atoms: N_6  and  C_7 
REMARK    6  A    between atoms: C_7  and  C_9 
REMARK    7  A    between atoms: C_11  and  C_52 
REMARK    8  A    between atoms: C_13  and  N_16 
REMARK    9  A    between atoms: N_16  and  C_17 
REMARK   10  A    between atoms: N_16  and  C_49 
REMARK   11  A    between atoms: C_17  and  C_18 
REMARK   12  A    between atoms: C_18  and  C_19 
REMARK   13  A    between atoms: C_18  and  O_48 
REMARK   14  A    between atoms: C_19  and  N_20 
REMARK   15  A    between atoms: N_20  and  C_21 
REMARK   16  A    between atoms: N_20  and  C_23 
REMARK   17  A    between atoms: C_25  and  C_39 
REMARK   18  A    between atoms: C_27  and  C_30 
REMARK       I    between atoms: C_30  and  N_32 
REMARK   19  A    between atoms: N_32  and  C_33 
REMARK   20  A    between atoms: C_33  and  C_34 
REMARK   21  A    between atoms: C_34  and  C_35 
REMARK   22  A    between atoms: C_34  and  O_37 
REMARK   23  A    between atoms: C_35  and  O_36 
REMARK       I    between atoms: C_39  and  N_41 
REMARK   24  A    between atoms: N_41  and  C_42 
REMARK   25  A    between atoms: C_42  and  C_43 
REMARK   26  A    between atoms: C_43  and  C_44 
REMARK   27  A    between atoms: C_43  and  O_46 
REMARK   28  A    between atoms: C_44  and  O_45 
REMARK       I    between atoms: C_52  and  N_54 
REMARK   29  A    between atoms: N_54  and  C_55 
REMARK   30  A    between atoms: C_55  and  C_56 
REMARK   31  A    between atoms: C_56  and  C_57 
REMARK   32  A    between atoms: C_56  and  O_59 
REMARK   33  A    between atoms: C_57  and  O_58 
ROOT
HETATM    1  C   UNK N   1      28.049  15.402   3.111  0.00  0.00     0.154 C 
ENDROOT
BRANCH   1   2
HETATM    2  C   UNK N   1      26.852  16.238   3.309  0.00  0.00     0.165 C 
BRANCH   2   3
HETATM    3  N   UNK N   1      25.654  15.483   3.245  0.00  0.00    -0.320 N 
BRANCH   3   4
HETATM    4  C   UNK N   1      24.805  15.484   4.413  0.00  0.00     0.072 C 
HETATM    5  C   UNK N   1      24.019  16.631   4.661  0.00  0.00     0.051 C 
HETATM    6  C   UNK N   1      22.862  16.582   5.414  0.00  0.00     0.068 C 
HETATM    7  I   UNK N   1      25.041  18.564   4.695  0.00  0.00    -0.041 I 
HETATM    8  C   UNK N   1      22.606  15.387   6.164  0.00  0.00     0.040 C 
HETATM    9  C   UNK N   1      23.504  14.243   6.070  0.00  0.00     0.068 C 
HETATM   10  I   UNK N   1      21.132  15.531   7.707  0.00  0.00    -0.042 I 
HETATM   11  C   UNK N   1      24.643  14.359   5.220  0.00  0.00     0.051 C 
HETATM   12  I   UNK N   1      26.395  13.018   5.384  0.00  0.00    -0.041 I 
BRANCH   6  13
HETATM   13  C   UNK N   1      21.929  17.813   5.389  0.00  0.00     0.254 C 
HETATM   14  O   UNK N   1      21.991  18.627   6.287  0.00  0.00    -0.268 OA
HETATM   15  N   UNK N   1      20.917  17.995   4.480  0.00  0.00    -0.354 N 
HETATM   16  H   UNK N   1      20.411  18.834   4.582  0.00  0.00     0.162 HD
BRANCH  15  17
HETATM   17  C   UNK N   1      20.478  17.141   3.388  0.00  0.00     0.156 C 
BRANCH  17  18
HETATM   18  C   UNK N   1      20.003  17.967   2.164  0.00  0.00     0.159 C 
BRANCH  18  19
HETATM   19  C   UNK N   1      19.976  17.188   0.849  0.00  0.00     0.197 C 
BRANCH  19  20
HETATM   20  O   UNK N   1      20.320  18.021  -0.217  0.00  0.00    -0.398 OA
HETATM   21  H   UNK N   1      19.773  18.038  -1.017  0.00  0.00     0.209 HD
ENDBRANCH  19  20
ENDBRANCH  18  19
BRANCH  18  22
HETATM   22  O   UNK N   1      18.735  18.502   2.406  0.00  0.00    -0.392 OA
HETATM   23  H   UNK N   1      18.142  18.218   3.120  0.00  0.00     0.210 HD
ENDBRANCH  18  22
ENDBRANCH  17  18
ENDBRANCH  15  17
ENDBRANCH   6  13
BRANCH   9  24
HETATM   24  C   UNK N   1      23.307  12.908   6.781  0.00  0.00     0.254 C 
HETATM   25  N   UNK N   1      23.737  12.597   8.023  0.00  0.00    -0.354 N 
HETATM   26  H   UNK N   1      23.464  11.704   8.335  0.00  0.00     0.162 HD
HETATM   27  O   UNK N   1      22.573  12.078   6.268  0.00  0.00    -0.268 OA
BRANCH  25  28
HETATM   28  C   UNK N   1      24.520  13.338   8.969  0.00  0.00     0.156 C 
BRANCH  28  29
HETATM   29  C   UNK N   1      24.623  12.448  10.208  0.00  0.00     0.159 C 
BRANCH  29  30
HETATM   30  C   UNK N   1      23.289  11.994  10.765  0.00  0.00     0.197 C 
BRANCH  30  31
HETATM   31  O   UNK N   1      22.367  13.032  10.612  0.00  0.00    -0.398 OA
HETATM   32  H   UNK N   1      21.779  13.795  10.728  0.00  0.00     0.209 HD
ENDBRANCH  30  31
ENDBRANCH  29  30
BRANCH  29  33
HETATM   33  O   UNK N   1      25.447  12.989  11.189  0.00  0.00    -0.392 OA
HETATM   34  H   UNK N   1      26.386  13.229  11.196  0.00  0.00     0.210 HD
ENDBRANCH  29  33
ENDBRANCH  28  29
ENDBRANCH  25  28
ENDBRANCH   9  24
ENDBRANCH   3   4
BRANCH   3  35
HETATM   35  C   UNK N   1      25.184  15.346   1.959  0.00  0.00     0.356 C 
HETATM   36  O   UNK N   1      25.103  14.280   1.382  0.00  0.00    -0.283 OA
ENDBRANCH   3  35
ENDBRANCH   2   3
ENDBRANCH   1   2
BRANCH   1  37
HETATM   37  C   UNK N   1      29.136  16.371   3.305  0.00  0.00     0.159 C 
BRANCH  37  38
HETATM   38  N   UNK N   1      30.329  15.709   3.714  0.00  0.00    -0.343 N 
BRANCH  38  39
HETATM   39  C   UNK N   1      31.397  16.180   3.002  0.00  0.00     0.351 C 
HETATM   40  O   UNK N   1      31.910  17.263   3.163  0.00  0.00    -0.283 OA
ENDBRANCH  38  39
BRANCH  38  41
HETATM   41  C   UNK N   1      30.333  14.935   4.973  0.00  0.00     0.168 C 
HETATM   42  C   UNK N   1      30.796  15.706   6.074  0.00  0.00     0.029 C 
HETATM   43  C   UNK N   1      32.175  15.746   6.314  0.00  0.00     0.064 C 
HETATM   44  I   UNK N   1      29.433  16.916   7.207  0.00  0.00    -0.046 I 
HETATM   45  C   UNK N   1      32.990  14.772   5.703  0.00  0.00     0.040 C 
HETATM   46  C   UNK N   1      32.356  13.678   5.058  0.00  0.00     0.064 C 
HETATM   47  I   UNK N   1      35.094  14.801   6.022  0.00  0.00    -0.042 I 
HETATM   48  C   UNK N   1      30.971  13.714   4.818  0.00  0.00     0.029 C 
HETATM   49  I   UNK N   1      29.827  12.059   4.030  0.00  0.00    -0.046 I 
BRANCH  43  50
HETATM   50  C   UNK N   1      32.747  16.827   7.157  0.00  0.00     0.254 C 
HETATM   51  O   UNK N   1      33.099  17.865   6.620  0.00  0.00    -0.268 OA
HETATM   52  N   UNK N   1      32.888  16.703   8.498  0.00  0.00    -0.354 N 
HETATM   53  H   UNK N   1      33.176  17.487   9.018  0.00  0.00     0.162 HD
BRANCH  52  54
HETATM   54  C   UNK N   1      32.631  15.470   9.192  0.00  0.00     0.156 C 
BRANCH  54  55
HETATM   55  C   UNK N   1      33.880  15.091   9.967  0.00  0.00     0.159 C 
BRANCH  55  56
HETATM   56  C   UNK N   1      34.932  16.179   9.826  0.00  0.00     0.197 C 
BRANCH  56  57
HETATM   57  O   UNK N   1      34.897  17.021  10.937  0.00  0.00    -0.398 OA
HETATM   58  H   UNK N   1      34.308  17.781  11.058  0.00  0.00     0.209 HD
ENDBRANCH  56  57
ENDBRANCH  55  56
BRANCH  55  59
HETATM   59  O   UNK N   1      33.560  14.905  11.310  0.00  0.00    -0.392 OA
HETATM   60  H   UNK N   1      34.078  14.663  12.093  0.00  0.00     0.210 HD
ENDBRANCH  55  59
ENDBRANCH  54  55
ENDBRANCH  52  54
ENDBRANCH  43  50
BRANCH  46  61
HETATM   61  C   UNK N   1      33.119  12.513   4.602  0.00  0.00     0.254 C 
HETATM   62  O   UNK N   1      33.218  11.541   5.333  0.00  0.00    -0.268 OA
HETATM   63  N   UNK N   1      33.701  12.489   3.383  0.00  0.00    -0.354 N 
HETATM   64  H   UNK N   1      34.312  11.749   3.163  0.00  0.00     0.162 HD
BRANCH  63  65
HETATM   65  C   UNK N   1      33.460  13.511   2.387  0.00  0.00     0.156 C 
BRANCH  65  66
HETATM   66  C   UNK N   1      34.793  14.071   1.918  0.00  0.00     0.159 C 
BRANCH  66  67
HETATM   67  C   UNK N   1      35.903  13.128   2.361  0.00  0.00     0.197 C 
BRANCH  67  68
HETATM   68  O   UNK N   1      36.012  12.049   1.487  0.00  0.00    -0.398 OA
HETATM   69  H   UNK N   1      36.641  11.320   1.607  0.00  0.00     0.209 HD
ENDBRANCH  67  68
ENDBRANCH  66  67
BRANCH  66  70
HETATM   70  O   UNK N   1      34.783  14.188   0.525  0.00  0.00    -0.392 OA
HETATM   71  H   UNK N   1      35.078  14.879  -0.090  0.00  0.00     0.210 HD
ENDBRANCH  66  70
ENDBRANCH  65  66
ENDBRANCH  63  65
ENDBRANCH  46  61
ENDBRANCH  38  41
ENDBRANCH  37  38
ENDBRANCH   1  37
BRANCH   1  72
HETATM   72  O   UNK N   1      28.101  14.803   1.850  0.00  0.00    -0.392 OA
HETATM   73  H   UNK N   1      27.473  14.453   1.199  0.00  0.00     0.210 HD
ENDBRANCH   1  72
TORSDOF 33
ENDMDL
MODEL 4
REMARK VINA RESULT:      -6.4      2.927     10.799
REMARK WARNING: 32 MAX_TORS EXCEEDED!!!
REMARK  33 active torsions:
REMARK  status: ('A' for Active; 'I' for Inactive)
REMARK    1  A    between atoms: C_1  and  C_2 
REMARK    2  A    between atoms: C_1  and  N_6 
REMARK    3  A    between atoms: C_2  and  C_3 
REMARK    4  A    between atoms: C_2  and  O_5 
REMARK    5  A    between atoms: C_3  and  O_4 
REMARK       I    between atoms: N_6  and  C_7 
REMARK    6  A    between atoms: C_7  and  C_9 
REMARK    7  A    between atoms: C_11  and  C_52 
REMARK    8  A    between atoms: C_13  and  N_16 
REMARK    9  A    between atoms: N_16  and  C_17 
REMARK   10  A    between atoms: N_16  and  C_49 
REMARK   11  A    between atoms: C_17  and  C_18 
REMARK   12  A    between atoms: C_18  and  C_19 
REMARK   13  A    between atoms: C_18  and  O_48 
REMARK   14  A    between atoms: C_19  and  N_20 
REMARK   15  A    between atoms: N_20  and  C_21 
REMARK   16  A    between atoms: N_20  and  C_23 
REMARK   17  A    between atoms: C_25  and  C_39 
REMARK   18  A    between atoms: C_27  and  C_30 
REMARK       I    between atoms: C_30  and  N_32 
REMARK   19  A    between atoms: N_32  and  C_33 
REMARK   20  A    between atoms: C_33  and  C_34 
REMARK   21  A    between atoms: C_34  and  C_35 
REMARK   22  A    between atoms: C_34  and  O_37 
REMARK   23  A    between atoms: C_35  and  O_36 
REMARK       I    between atoms: C_39  and  N_41 
REMARK   24  A    between atoms: N_41  and  C_42 
REMARK   25  A    between atoms: C_42  and  C_43 
REMARK   26  A    between atoms: C_43  and  C_44 
REMARK   27  A    between atoms: C_43  and  O_46 
REMARK   28  A    between atoms: C_44  and  O_45 
REMARK       I    between atoms: C_52  and  N_54 
REMARK   29  A    between atoms: N_54  and  C_55 
REMARK   30  A    between atoms: C_55  and  C_56 
REMARK   31  A    between atoms: C_56  and  C_57 
REMARK   32  A    between atoms: C_56  and  O_59 
REMARK   33  A    between atoms: C_57  and  O_58 
ROOT
HETATM    1  C   UNK N   1      27.359  15.383   5.065  0.00  0.00     0.154 C 
ENDROOT
BRANCH   1   2
HETATM    2  C   UNK N   1      28.594  15.843   5.723  0.00  0.00     0.165 C 
BRANCH   2   3
HETATM    3  N   UNK N   1      29.633  16.101   4.794  0.00  0.00    -0.320 N 
BRANCH   3   4
HETATM    4  C   UNK N   1      30.948  15.597   5.111  0.00  0.00     0.072 C 
HETATM    5  C   UNK N   1      31.463  14.545   4.321  0.00  0.00     0.051 C 
HETATM    6  C   UNK N   1      32.818  14.313   4.197  0.00  0.00     0.068 C 
HETATM    7  I   UNK N   1      30.212  12.768   4.073  0.00  0.00    -0.041 I 
HETATM    8  C   UNK N   1      33.697  15.001   5.096  0.00  0.00     0.040 C 
HETATM    9  C   UNK N   1      33.172  15.966   6.055  0.00  0.00     0.068 C 
HETATM   10  I   UNK N   1      35.689  14.240   5.249  0.00  0.00    -0.042 I 
HETATM   11  C   UNK N   1      31.765  16.189   6.072  0.00  0.00     0.051 C 
HETATM   12  I   UNK N   1      30.726  17.129   7.786  0.00  0.00    -0.041 I 
BRANCH   6  13
HETATM   13  C   UNK N   1      33.287  13.334   3.098  0.00  0.00     0.254 C 
HETATM   14  O   UNK N   1      33.264  13.684   1.936  0.00  0.00    -0.268 OA
HETATM   15  N   UNK N   1      33.609  12.019   3.323  0.00  0.00    -0.354 N 
HETATM   16  H   UNK N   1      33.900  11.518   2.527  0.00  0.00     0.162 HD
BRANCH  15  17
HETATM   17  C   UNK N   1      33.588  11.251   4.558  0.00  0.00     0.156 C 
BRANCH  17  18
HETATM   18  C   UNK N   1      33.032   9.820   4.339  0.00  0.00     0.159 C 
BRANCH  18  19
HETATM   19  C   UNK N   1      32.047   9.353   5.412  0.00  0.00     0.197 C 
BRANCH  19  20
HETATM   20  O   UNK N   1      31.480   8.130   5.052  0.00  0.00    -0.398 OA
HETATM   21  H   UNK N   1      30.557   8.090   4.758  0.00  0.00     0.209 HD
ENDBRANCH  19  20
ENDBRANCH  18  19
BRANCH  18  22
HETATM   22  O   UNK N   1      32.422   9.726   3.085  0.00  0.00    -0.392 OA
HETATM   23  H   UNK N   1      32.897   9.631   2.245  0.00  0.00     0.210 HD
ENDBRANCH  18  22
ENDBRANCH  17  18
ENDBRANCH  15  17
ENDBRANCH   6  13
BRANCH   9  24
HETATM   24  C   UNK N   1      34.013  16.791   7.024  0.00  0.00     0.254 C 
HETATM   25  N   UNK N   1      34.473  16.382   8.226  0.00  0.00    -0.354 N 
HETATM   26  H   UNK N   1      35.049  17.036   8.684  0.00  0.00     0.162 HD
HETATM   27  O   UNK N   1      34.452  17.867   6.644  0.00  0.00    -0.268 OA
BRANCH  25  28
HETATM   28  C   UNK N   1      34.270  15.163   8.954  0.00  0.00     0.156 C 
BRANCH  28  29
HETATM   29  C   UNK N   1      34.606  15.490  10.409  0.00  0.00     0.159 C 
BRANCH  29  30
HETATM   30  C   UNK N   1      35.996  15.069  10.841  0.00  0.00     0.197 C 
BRANCH  30  31
HETATM   31  O   UNK N   1      36.806  16.205  10.903  0.00  0.00    -0.398 OA
HETATM   32  H   UNK N   1      37.279  17.035  10.736  0.00  0.00     0.209 HD
ENDBRANCH  30  31
ENDBRANCH  29  30
BRANCH  29  33
HETATM   33  O   UNK N   1      33.625  15.056  11.296  0.00  0.00    -0.392 OA
HETATM   34  H   UNK N   1      33.532  14.249  11.826  0.00  0.00     0.210 HD
ENDBRANCH  29  33
ENDBRANCH  28  29
ENDBRANCH  25  28
ENDBRANCH   9  24
ENDBRANCH   3   4
BRANCH   3  35
HETATM   35  C   UNK N   1      29.165  16.264   3.510  0.00  0.00     0.356 C 
HETATM   36  O   UNK N   1      29.838  16.703   2.599  0.00  0.00    -0.283 OA
ENDBRANCH   3  35
ENDBRANCH   2   3
ENDBRANCH   1   2
BRANCH   1  37
HETATM   37  C   UNK N   1      26.346  16.268   5.656  0.00  0.00     0.159 C 
BRANCH  37  38
HETATM   38  N   UNK N   1      25.038  15.864   5.267  0.00  0.00    -0.343 N 
BRANCH  38  39
HETATM   39  C   UNK N   1      24.360  15.363   6.343  0.00  0.00     0.351 C 
HETATM   40  O   UNK N   1      24.306  14.192   6.642  0.00  0.00    -0.283 OA
ENDBRANCH  38  39
BRANCH  38  41
HETATM   41  C   UNK N   1      24.496  16.314   3.967  0.00  0.00     0.168 C 
HETATM   42  C   UNK N   1      23.740  17.511   4.089  0.00  0.00     0.029 C 
HETATM   43  C   UNK N   1      22.380  17.400   4.404  0.00  0.00     0.064 C 
HETATM   44  I   UNK N   1      24.703  19.425   3.977  0.00  0.00    -0.046 I 
HETATM   45  C   UNK N   1      21.754  16.147   4.241  0.00  0.00     0.040 C 
HETATM   46  C   UNK N   1      22.470  15.125   3.563  0.00  0.00     0.064 C 
HETATM   47  I   UNK N   1      19.693  15.921   4.722  0.00  0.00    -0.042 I 
HETATM   48  C   UNK N   1      23.843  15.286   3.305  0.00  0.00     0.029 C 
HETATM   49  I   UNK N   1      25.028  13.922   2.119  0.00  0.00    -0.046 I 
BRANCH  43  50
HETATM   50  C   UNK N   1      21.647  18.574   4.942  0.00  0.00     0.254 C 
HETATM   51  O   UNK N   1      21.592  18.727   6.151  0.00  0.00    -0.268 OA
HETATM   52  N   UNK N   1      21.043  19.482   4.138  0.00  0.00    -0.354 N 
HETATM   53  H   UNK N   1      20.661  20.293   4.545  0.00  0.00     0.162 HD
BRANCH  52  54
HETATM   54  C   UNK N   1      20.937  19.306   2.716  0.00  0.00     0.156 C 
BRANCH  54  55
HETATM   55  C   UNK N   1      21.558  20.514   2.039  0.00  0.00     0.159 C 
BRANCH  55  56
HETATM   56  C   UNK N   1      20.794  20.851   0.769  0.00  0.00     0.197 C 
BRANCH  56  57
HETATM   57  O   UNK N   1      20.551  19.690   0.037  0.00  0.00    -0.398 OA
HETATM   58  H   UNK N   1      21.085  19.358  -0.701  0.00  0.00     0.209 HD
ENDBRANCH  56  57
ENDBRANCH  55  56
BRANCH  55  59
HETATM   59  O   UNK N   1      21.542  21.600   2.911  0.00  0.00    -0.392 OA
HETATM   60  H   UNK N   1      20.887  22.287   3.110  0.00  0.00     0.210 HD
ENDBRANCH  55  59
ENDBRANCH  54  55
ENDBRANCH  52  54
ENDBRANCH  43  50
BRANCH  46  61
HETATM   61  C   UNK N   1      21.818  13.880   3.149  0.00  0.00     0.254 C 
HETATM   62  O   UNK N   1      21.788  12.937   3.922  0.00  0.00    -0.268 OA
HETATM   63  N   UNK N   1      21.237  13.762   1.934  0.00  0.00    -0.354 N 
HETATM   64  H   UNK N   1      20.927  12.875   1.641  0.00  0.00     0.162 HD
BRANCH  63  65
HETATM   65  C   UNK N   1      21.054  14.890   1.048  0.00  0.00     0.156 C 
BRANCH  65  66
HETATM   66  C   UNK N   1      19.567  15.169   0.901  0.00  0.00     0.159 C 
BRANCH  66  67
HETATM   67  C   UNK N   1      19.385  16.392   0.011  0.00  0.00     0.197 C 
BRANCH  67  68
HETATM   68  O   UNK N   1      18.035  16.709  -0.121  0.00  0.00    -0.398 OA
HETATM   69  H   UNK N   1      17.317  16.167   0.240  0.00  0.00     0.209 HD
ENDBRANCH  67  68
ENDBRANCH  66  67
BRANCH  66  70
HETATM   70  O   UNK N   1      18.941  14.056   0.330  0.00  0.00    -0.392 OA
HETATM   71  H   UNK N   1      18.248  13.450   0.634  0.00  0.00     0.210 HD
ENDBRANCH  66  70
ENDBRANCH  65  66
ENDBRANCH  63  65
ENDBRANCH  46  61
ENDBRANCH  38  41
ENDBRANCH  37  38
ENDBRANCH   1  37
BRANCH   1  72
HETATM   72  O   UNK N   1      27.075  14.035   5.302  0.00  0.00    -0.392 OA
HETATM   73  H   UNK N   1      26.467  13.520   5.855  0.00  0.00     0.210 HD
ENDBRANCH   1  72
TORSDOF 33
ENDMDL
MODEL 5
REMARK VINA RESULT:      -6.4      2.253     10.344
REMARK WARNING: 32 MAX_TORS EXCEEDED!!!
REMARK  33 active torsions:
REMARK  status: ('A' for Active; 'I' for Inactive)
REMARK    1  A    between atoms: C_1  and  C_2 
REMARK    2  A    between atoms: C_1  and  N_6 
REMARK    3  A    between atoms: C_2  and  C_3 
REMARK    4  A    between atoms: C_2  and  O_5 
REMARK    5  A    between atoms: C_3  and  O_4 
REMARK       I    between atoms: N_6  and  C_7 
REMARK    6  A    between atoms: C_7  and  C_9 
REMARK    7  A    between atoms: C_11  and  C_52 
REMARK    8  A    between atoms: C_13  and  N_16 
REMARK    9  A    between atoms: N_16  and  C_17 
REMARK   10  A    between atoms: N_16  and  C_49 
REMARK   11  A    between atoms: C_17  and  C_18 
REMARK   12  A    between atoms: C_18  and  C_19 
REMARK   13  A    between atoms: C_18  and  O_48 
REMARK   14  A    between atoms: C_19  and  N_20 
REMARK   15  A    between atoms: N_20  and  C_21 
REMARK   16  A    between atoms: N_20  and  C_23 
REMARK   17  A    between atoms: C_25  and  C_39 
REMARK   18  A    between atoms: C_27  and  C_30 
REMARK       I    between atoms: C_30  and  N_32 
REMARK   19  A    between atoms: N_32  and  C_33 
REMARK   20  A    between atoms: C_33  and  C_34 
REMARK   21  A    between atoms: C_34  and  C_35 
REMARK   22  A    between atoms: C_34  and  O_37 
REMARK   23  A    between atoms: C_35  and  O_36 
REMARK       I    between atoms: C_39  and  N_41 
REMARK   24  A    between atoms: N_41  and  C_42 
REMARK   25  A    between atoms: C_42  and  C_43 
REMARK   26  A    between atoms: C_43  and  C_44 
REMARK   27  A    between atoms: C_43  and  O_46 
REMARK   28  A    between atoms: C_44  and  O_45 
REMARK       I    between atoms: C_52  and  N_54 
REMARK   29  A    between atoms: N_54  and  C_55 
REMARK   30  A    between atoms: C_55  and  C_56 
REMARK   31  A    between atoms: C_56  and  C_57 
REMARK   32  A    between atoms: C_56  and  O_59 
REMARK   33  A    between atoms: C_57  and  O_58 
ROOT
HETATM    1  C   UNK N   1      25.725  17.294   5.035  0.00  0.00     0.154 C 
ENDROOT
BRANCH   1   2
HETATM    2  C   UNK N   1      26.986  17.328   4.273  0.00  0.00     0.165 C 
BRANCH   2   3
HETATM    3  N   UNK N   1      27.969  18.135   4.899  0.00  0.00    -0.320 N 
BRANCH   3   4
HETATM    4  C   UNK N   1      29.215  17.501   5.261  0.00  0.00     0.072 C 
HETATM    5  C   UNK N   1      29.989  16.923   4.230  0.00  0.00     0.051 C 
HETATM    6  C   UNK N   1      31.352  16.735   4.350  0.00  0.00     0.068 C 
HETATM    7  I   UNK N   1      28.992  15.505   2.897  0.00  0.00    -0.041 I 
HETATM    8  C   UNK N   1      31.935  16.899   5.650  0.00  0.00     0.040 C 
HETATM    9  C   UNK N   1      31.120  17.321   6.783  0.00  0.00     0.068 C 
HETATM   10  I   UNK N   1      33.898  16.093   5.920  0.00  0.00    -0.042 I 
HETATM   11  C   UNK N   1      29.732  17.553   6.554  0.00  0.00     0.051 C 
HETATM   12  I   UNK N   1      28.247  17.617   8.194  0.00  0.00    -0.041 I 
BRANCH   6  13
HETATM   13  C   UNK N   1      32.147  16.367   3.078  0.00  0.00     0.254 C 
HETATM   14  O   UNK N   1      32.358  17.218   2.238  0.00  0.00    -0.268 OA
HETATM   15  N   UNK N   1      32.527  15.090   2.749  0.00  0.00    -0.354 N 
HETATM   16  H   UNK N   1      33.037  15.010   1.910  0.00  0.00     0.162 HD
BRANCH  15  17
HETATM   17  C   UNK N   1      32.295  13.837   3.450  0.00  0.00     0.156 C 
BRANCH  17  18
HETATM   18  C   UNK N   1      32.373  12.618   2.494  0.00  0.00     0.159 C 
BRANCH  18  19
HETATM   19  C   UNK N   1      31.040  12.232   1.852  0.00  0.00     0.197 C 
BRANCH  19  20
HETATM   20  O   UNK N   1      31.213  11.969   0.493  0.00  0.00    -0.398 OA
HETATM   21  H   UNK N   1      30.566  12.295  -0.152  0.00  0.00     0.209 HD
ENDBRANCH  19  20
ENDBRANCH  18  19
BRANCH  18  22
HETATM   22  O   UNK N   1      33.315  12.853   1.489  0.00  0.00    -0.392 OA
HETATM   23  H   UNK N   1      33.608  12.193   0.842  0.00  0.00     0.210 HD
ENDBRANCH  18  22
ENDBRANCH  17  18
ENDBRANCH  15  17
ENDBRANCH   6  13
BRANCH   9  24
HETATM   24  C   UNK N   1      31.638  17.573   8.194  0.00  0.00     0.254 C 
HETATM   25  N   UNK N   1      32.020  16.630   9.083  0.00  0.00    -0.354 N 
HETATM   26  H   UNK N   1      32.382  16.989   9.925  0.00  0.00     0.162 HD
HETATM   27  O   UNK N   1      31.882  18.723   8.529  0.00  0.00    -0.268 OA
BRANCH  25  28
HETATM   28  C   UNK N   1      31.991  15.197   9.016  0.00  0.00     0.156 C 
BRANCH  28  29
HETATM   29  C   UNK N   1      33.299  14.728   9.654  0.00  0.00     0.159 C 
BRANCH  29  30
HETATM   30  C   UNK N   1      33.760  13.358   9.201  0.00  0.00     0.197 C 
BRANCH  30  31
HETATM   31  O   UNK N   1      33.737  12.495  10.298  0.00  0.00    -0.398 OA
HETATM   32  H   UNK N   1      33.940  11.965  11.084  0.00  0.00     0.209 HD
ENDBRANCH  30  31
ENDBRANCH  29  30
BRANCH  29  33
HETATM   33  O   UNK N   1      33.292  14.849  11.040  0.00  0.00    -0.392 OA
HETATM   34  H   UNK N   1      33.733  15.464  11.646  0.00  0.00     0.210 HD
ENDBRANCH  29  33
ENDBRANCH  28  29
ENDBRANCH  25  28
ENDBRANCH   9  24
ENDBRANCH   3   4
BRANCH   3  35
HETATM   35  C   UNK N   1      27.857  19.464   4.559  0.00  0.00     0.356 C 
HETATM   36  O   UNK N   1      27.241  19.862   3.591  0.00  0.00    -0.283 OA
ENDBRANCH   3  35
ENDBRANCH   2   3
ENDBRANCH   1   2
BRANCH   1  37
HETATM   37  C   UNK N   1      24.748  16.932   4.000  0.00  0.00     0.159 C 
BRANCH  37  38
HETATM   38  N   UNK N   1      24.016  15.773   4.385  0.00  0.00    -0.343 N 
BRANCH  38  39
HETATM   39  C   UNK N   1      24.262  14.748   3.515  0.00  0.00     0.351 C 
HETATM   40  O   UNK N   1      24.475  14.884   2.332  0.00  0.00    -0.283 OA
ENDBRANCH  38  39
BRANCH  38  41
HETATM   41  C   UNK N   1      23.421  15.709   5.737  0.00  0.00     0.168 C 
HETATM   42  C   UNK N   1      23.722  14.486   6.397  0.00  0.00     0.029 C 
HETATM   43  C   UNK N   1      22.873  13.394   6.176  0.00  0.00     0.064 C 
HETATM   44  I   UNK N   1      25.526  14.280   7.539  0.00  0.00    -0.046 I 
HETATM   45  C   UNK N   1      21.601  13.636   5.618  0.00  0.00     0.040 C 
HETATM   46  C   UNK N   1      21.162  14.982   5.514  0.00  0.00     0.064 C 
HETATM   47  I   UNK N   1      20.281  12.009   5.247  0.00  0.00    -0.042 I 
HETATM   48  C   UNK N   1      22.073  16.033   5.716  0.00  0.00     0.029 C 
HETATM   49  I   UNK N   1      21.527  18.123   5.787  0.00  0.00    -0.046 I 
BRANCH  43  50
HETATM   50  C   UNK N   1      23.342  12.019   6.485  0.00  0.00     0.254 C 
HETATM   51  O   UNK N   1      23.871  11.368   5.599  0.00  0.00    -0.268 OA
HETATM   52  N   UNK N   1      23.207  11.466   7.713  0.00  0.00    -0.354 N 
HETATM   53  H   UNK N   1      23.627  10.593   7.887  0.00  0.00     0.162 HD
BRANCH  52  54
HETATM   54  C   UNK N   1      22.473  12.104   8.772  0.00  0.00     0.156 C 
BRANCH  54  55
HETATM   55  C   UNK N   1      22.934  11.515  10.093  0.00  0.00     0.159 C 
BRANCH  55  56
HETATM   56  C   UNK N   1      24.181  12.235  10.578  0.00  0.00     0.197 C 
BRANCH  56  57
HETATM   57  O   UNK N   1      24.231  12.214  11.971  0.00  0.00    -0.398 OA
HETATM   58  H   UNK N   1      23.534  12.521  12.572  0.00  0.00     0.209 HD
ENDBRANCH  56  57
ENDBRANCH  55  56
BRANCH  55  59
HETATM   59  O   UNK N   1      21.916  11.630  11.038  0.00  0.00    -0.392 OA
HETATM   60  H   UNK N   1      20.966  11.814  10.977  0.00  0.00     0.210 HD
ENDBRANCH  55  59
ENDBRANCH  54  55
ENDBRANCH  52  54
ENDBRANCH  43  50
BRANCH  46  61
HETATM   61  C   UNK N   1      19.777  15.310   5.164  0.00  0.00     0.254 C 
HETATM   62  O   UNK N   1      18.952  15.439   6.053  0.00  0.00    -0.268 OA
HETATM   63  N   UNK N   1      19.400  15.484   3.878  0.00  0.00    -0.354 N 
HETATM   64  H   UNK N   1      18.441  15.571   3.672  0.00  0.00     0.162 HD
BRANCH  63  65
HETATM   65  C   UNK N   1      20.353  15.548   2.791  0.00  0.00     0.156 C 
BRANCH  65  66
HETATM   66  C   UNK N   1      20.233  16.899   2.105  0.00  0.00     0.159 C 
BRANCH  66  67
HETATM   67  C   UNK N   1      19.942  16.671   0.627  0.00  0.00     0.197 C 
BRANCH  67  68
HETATM   68  O   UNK N   1      20.322  17.779  -0.127  0.00  0.00    -0.398 OA
HETATM   69  H   UNK N   1      20.945  18.454   0.184  0.00  0.00     0.209 HD
ENDBRANCH  67  68
ENDBRANCH  66  67
BRANCH  66  70
HETATM   70  O   UNK N   1      19.198  17.629   2.696  0.00  0.00    -0.392 OA
HETATM   71  H   UNK N   1      18.496  18.200   2.344  0.00  0.00     0.210 HD
ENDBRANCH  66  70
ENDBRANCH  65  66
ENDBRANCH  63  65
ENDBRANCH  46  61
ENDBRANCH  38  41
ENDBRANCH  37  38
ENDBRANCH   1  37
BRANCH   1  72
HETATM   72  O   UNK N   1      25.414  18.513   5.643  0.00  0.00    -0.392 OA
HETATM   73  H   UNK N   1      25.845  19.370   5.785  0.00  0.00     0.210 HD
ENDBRANCH   1  72
TORSDOF 33
ENDMDL
MODEL 6
REMARK VINA RESULT:      -6.3      2.563     10.297
REMARK WARNING: 32 MAX_TORS EXCEEDED!!!
REMARK  33 active torsions:
REMARK  status: ('A' for Active; 'I' for Inactive)
REMARK    1  A    between atoms: C_1  and  C_2 
REMARK    2  A    between atoms: C_1  and  N_6 
REMARK    3  A    between atoms: C_2  and  C_3 
REMARK    4  A    between atoms: C_2  and  O_5 
REMARK    5  A    between atoms: C_3  and  O_4 
REMARK       I    between atoms: N_6  and  C_7 
REMARK    6  A    between atoms: C_7  and  C_9 
REMARK    7  A    between atoms: C_11  and  C_52 
REMARK    8  A    between atoms: C_13  and  N_16 
REMARK    9  A    between atoms: N_16  and  C_17 
REMARK   10  A    between atoms: N_16  and  C_49 
REMARK   11  A    between atoms: C_17  and  C_18 
REMARK   12  A    between atoms: C_18  and  C_19 
REMARK   13  A    between atoms: C_18  and  O_48 
REMARK   14  A    between atoms: C_19  and  N_20 
REMARK   15  A    between atoms: N_20  and  C_21 
REMARK   16  A    between atoms: N_20  and  C_23 
REMARK   17  A    between atoms: C_25  and  C_39 
REMARK   18  A    between atoms: C_27  and  C_30 
REMARK       I    between atoms: C_30  and  N_32 
REMARK   19  A    between atoms: N_32  and  C_33 
REMARK   20  A    between atoms: C_33  and  C_34 
REMARK   21  A    between atoms: C_34  and  C_35 
REMARK   22  A    between atoms: C_34  and  O_37 
REMARK   23  A    between atoms: C_35  and  O_36 
REMARK       I    between atoms: C_39  and  N_41 
REMARK   24  A    between atoms: N_41  and  C_42 
REMARK   25  A    between atoms: C_42  and  C_43 
REMARK   26  A    between atoms: C_43  and  C_44 
REMARK   27  A    between atoms: C_43  and  O_46 
REMARK   28  A    between atoms: C_44  and  O_45 
REMARK       I    between atoms: C_52  and  N_54 
REMARK   29  A    between atoms: N_54  and  C_55 
REMARK   30  A    between atoms: C_55  and  C_56 
REMARK   31  A    between atoms: C_56  and  C_57 
REMARK   32  A    between atoms: C_56  and  O_59 
REMARK   33  A    between atoms: C_57  and  O_58 
ROOT
HETATM    1  C   UNK N   1      25.839  17.252   5.075  0.00  0.00     0.154 C 
ENDROOT
BRANCH   1   2
HETATM    2  C   UNK N   1      27.098  17.237   4.310  0.00  0.00     0.165 C 
BRANCH   2   3
HETATM    3  N   UNK N   1      28.085  18.077   4.885  0.00  0.00    -0.320 N 
BRANCH   3   4
HETATM    4  C   UNK N   1      29.343  17.469   5.249  0.00  0.00     0.072 C 
HETATM    5  C   UNK N   1      30.122  16.889   4.222  0.00  0.00     0.051 C 
HETATM    6  C   UNK N   1      31.488  16.726   4.337  0.00  0.00     0.068 C 
HETATM    7  I   UNK N   1      29.140  15.435   2.915  0.00  0.00    -0.041 I 
HETATM    8  C   UNK N   1      32.075  16.918   5.630  0.00  0.00     0.040 C 
HETATM    9  C   UNK N   1      31.260  17.343   6.762  0.00  0.00     0.068 C 
HETATM   10  I   UNK N   1      34.053  16.150   5.900  0.00  0.00    -0.042 I 
HETATM   11  C   UNK N   1      29.867  17.548   6.538  0.00  0.00     0.051 C 
HETATM   12  I   UNK N   1      28.391  17.611   8.185  0.00  0.00    -0.041 I 
BRANCH   6  13
HETATM   13  C   UNK N   1      32.281  16.352   3.065  0.00  0.00     0.254 C 
HETATM   14  O   UNK N   1      32.471  17.194   2.210  0.00  0.00    -0.268 OA
HETATM   15  N   UNK N   1      32.684  15.078   2.754  0.00  0.00    -0.354 N 
HETATM   16  H   UNK N   1      33.190  14.994   1.913  0.00  0.00     0.162 HD
BRANCH  15  17
HETATM   17  C   UNK N   1      32.479  13.832   3.476  0.00  0.00     0.156 C 
BRANCH  17  18
HETATM   18  C   UNK N   1      33.577  12.787   3.147  0.00  0.00     0.159 C 
BRANCH  18  19
HETATM   19  C   UNK N   1      34.484  13.171   1.977  0.00  0.00     0.197 C 
BRANCH  19  20
HETATM   20  O   UNK N   1      33.771  13.139   0.778  0.00  0.00    -0.398 OA
HETATM   21  H   UNK N   1      34.125  12.658   0.014  0.00  0.00     0.209 HD
ENDBRANCH  19  20
ENDBRANCH  18  19
BRANCH  18  22
HETATM   22  O   UNK N   1      34.363  12.542   4.275  0.00  0.00    -0.392 OA
HETATM   23  H   UNK N   1      34.535  11.663   4.649  0.00  0.00     0.210 HD
ENDBRANCH  18  22
ENDBRANCH  17  18
ENDBRANCH  15  17
ENDBRANCH   6  13
BRANCH   9  24
HETATM   24  C   UNK N   1      31.782  17.625   8.166  0.00  0.00     0.254 C 
HETATM   25  N   UNK N   1      32.202  16.703   9.059  0.00  0.00    -0.354 N 
HETATM   26  H   UNK N   1      32.560  17.081   9.895  0.00  0.00     0.162 HD
HETATM   27  O   UNK N   1      31.991  18.785   8.488  0.00  0.00    -0.268 OA
BRANCH  25  28
HETATM   28  C   UNK N   1      32.220  15.269   9.005  0.00  0.00     0.156 C 
BRANCH  28  29
HETATM   29  C   UNK N   1      33.338  14.834   9.953  0.00  0.00     0.159 C 
BRANCH  29  30
HETATM   30  C   UNK N   1      34.633  15.602   9.787  0.00  0.00     0.197 C 
BRANCH  30  31
HETATM   31  O   UNK N   1      34.641  16.663  10.695  0.00  0.00    -0.398 OA
HETATM   32  H   UNK N   1      34.423  17.345  11.349  0.00  0.00     0.209 HD
ENDBRANCH  30  31
ENDBRANCH  29  30
BRANCH  29  33
HETATM   33  O   UNK N   1      33.538  13.458   9.948  0.00  0.00    -0.392 OA
HETATM   34  H   UNK N   1      34.339  12.912   9.996  0.00  0.00     0.210 HD
ENDBRANCH  29  33
ENDBRANCH  28  29
ENDBRANCH  25  28
ENDBRANCH   9  24
ENDBRANCH   3   4
BRANCH   3  35
HETATM   35  C   UNK N   1      27.954  19.390   4.495  0.00  0.00     0.356 C 
HETATM   36  O   UNK N   1      27.831  20.314   5.273  0.00  0.00    -0.283 OA
ENDBRANCH   3  35
ENDBRANCH   2   3
ENDBRANCH   1   2
BRANCH   1  37
HETATM   37  C   UNK N   1      24.839  17.006   4.027  0.00  0.00     0.159 C 
BRANCH  37  38
HETATM   38  N   UNK N   1      23.795  16.171   4.517  0.00  0.00    -0.343 N 
BRANCH  38  39
HETATM   39  C   UNK N   1      22.686  16.920   4.797  0.00  0.00     0.351 C 
HETATM   40  O   UNK N   1      22.683  17.924   5.471  0.00  0.00    -0.283 OA
ENDBRANCH  38  39
BRANCH  38  41
HETATM   41  C   UNK N   1      23.897  14.707   4.345  0.00  0.00     0.168 C 
HETATM   42  C   UNK N   1      23.256  14.262   3.157  0.00  0.00     0.029 C 
HETATM   43  C   UNK N   1      21.887  13.970   3.219  0.00  0.00     0.064 C 
HETATM   44  I   UNK N   1      24.318  14.224   1.293  0.00  0.00    -0.046 I 
HETATM   45  C   UNK N   1      21.297  13.789   4.486  0.00  0.00     0.040 C 
HETATM   46  C   UNK N   1      22.153  13.693   5.615  0.00  0.00     0.064 C 
HETATM   47  I   UNK N   1      19.218  13.361   4.635  0.00  0.00    -0.042 I 
HETATM   48  C   UNK N   1      23.512  14.032   5.493  0.00  0.00     0.029 C 
HETATM   49  I   UNK N   1      24.982  13.755   7.053  0.00  0.00    -0.046 I 
BRANCH  43  50
HETATM   50  C   UNK N   1      21.087  13.906   1.969  0.00  0.00     0.254 C 
HETATM   51  O   UNK N   1      20.977  12.834   1.398  0.00  0.00    -0.268 OA
HETATM   52  N   UNK N   1      20.474  14.994   1.445  0.00  0.00    -0.354 N 
HETATM   53  H   UNK N   1      19.874  14.873   0.674  0.00  0.00     0.162 HD
BRANCH  52  54
HETATM   54  C   UNK N   1      20.665  16.318   1.971  0.00  0.00     0.156 C 
BRANCH  54  55
HETATM   55  C   UNK N   1      20.021  17.307   1.017  0.00  0.00     0.159 C 
BRANCH  55  56
HETATM   56  C   UNK N   1      19.415  16.572  -0.167  0.00  0.00     0.197 C 
BRANCH  56  57
HETATM   57  O   UNK N   1      18.027  16.536  -0.044  0.00  0.00    -0.398 OA
HETATM   58  H   UNK N   1      17.475  17.201   0.394  0.00  0.00     0.209 HD
ENDBRANCH  56  57
ENDBRANCH  55  56
BRANCH  55  59
HETATM   59  O   UNK N   1      19.036  18.031   1.687  0.00  0.00    -0.392 OA
HETATM   60  H   UNK N   1      18.283  18.564   1.391  0.00  0.00     0.210 HD
ENDBRANCH  55  59
ENDBRANCH  54  55
ENDBRANCH  52  54
ENDBRANCH  43  50
BRANCH  46  61
HETATM   61  C   UNK N   1      21.647  13.278   6.926  0.00  0.00     0.254 C 
HETATM   62  O   UNK N   1      21.607  12.091   7.202  0.00  0.00    -0.268 OA
HETATM   63  N   UNK N   1      21.236  14.186   7.839  0.00  0.00    -0.354 N 
HETATM   64  H   UNK N   1      20.782  13.868   8.652  0.00  0.00     0.162 HD
BRANCH  63  65
HETATM   65  C   UNK N   1      21.442  15.608   7.667  0.00  0.00     0.156 C 
BRANCH  65  66
HETATM   66  C   UNK N   1      20.430  16.362   8.516  0.00  0.00     0.159 C 
BRANCH  66  67
HETATM   67  C   UNK N   1      19.838  17.490   7.683  0.00  0.00     0.197 C 
BRANCH  67  68
HETATM   68  O   UNK N   1      20.678  18.601   7.687  0.00  0.00    -0.398 OA
HETATM   69  H   UNK N   1      20.601  19.332   8.321  0.00  0.00     0.209 HD
ENDBRANCH  67  68
ENDBRANCH  66  67
BRANCH  66  70
HETATM   70  O   UNK N   1      19.424  15.483   8.927  0.00  0.00    -0.392 OA
HETATM   71  H   UNK N   1      18.470  15.581   9.074  0.00  0.00     0.210 HD
ENDBRANCH  66  70
ENDBRANCH  65  66
ENDBRANCH  63  65
ENDBRANCH  46  61
ENDBRANCH  38  41
ENDBRANCH  37  38
ENDBRANCH   1  37
BRANCH   1  72
HETATM   72  O   UNK N   1      25.612  18.459   5.741  0.00  0.00    -0.392 OA
HETATM   73  H   UNK N   1      25.604  19.404   5.522  0.00  0.00     0.210 HD
ENDBRANCH   1  72
TORSDOF 33
ENDMDL
MODEL 7
REMARK VINA RESULT:      -6.3      2.274      5.724
REMARK WARNING: 32 MAX_TORS EXCEEDED!!!
REMARK  33 active torsions:
REMARK  status: ('A' for Active; 'I' for Inactive)
REMARK    1  A    between atoms: C_1  and  C_2 
REMARK    2  A    between atoms: C_1  and  N_6 
REMARK    3  A    between atoms: C_2  and  C_3 
REMARK    4  A    between atoms: C_2  and  O_5 
REMARK    5  A    between atoms: C_3  and  O_4 
REMARK       I    between atoms: N_6  and  C_7 
REMARK    6  A    between atoms: C_7  and  C_9 
REMARK    7  A    between atoms: C_11  and  C_52 
REMARK    8  A    between atoms: C_13  and  N_16 
REMARK    9  A    between atoms: N_16  and  C_17 
REMARK   10  A    between atoms: N_16  and  C_49 
REMARK   11  A    between atoms: C_17  and  C_18 
REMARK   12  A    between atoms: C_18  and  C_19 
REMARK   13  A    between atoms: C_18  and  O_48 
REMARK   14  A    between atoms: C_19  and  N_20 
REMARK   15  A    between atoms: N_20  and  C_21 
REMARK   16  A    between atoms: N_20  and  C_23 
REMARK   17  A    between atoms: C_25  and  C_39 
REMARK   18  A    between atoms: C_27  and  C_30 
REMARK       I    between atoms: C_30  and  N_32 
REMARK   19  A    between atoms: N_32  and  C_33 
REMARK   20  A    between atoms: C_33  and  C_34 
REMARK   21  A    between atoms: C_34  and  C_35 
REMARK   22  A    between atoms: C_34  and  O_37 
REMARK   23  A    between atoms: C_35  and  O_36 
REMARK       I    between atoms: C_39  and  N_41 
REMARK   24  A    between atoms: N_41  and  C_42 
REMARK   25  A    between atoms: C_42  and  C_43 
REMARK   26  A    between atoms: C_43  and  C_44 
REMARK   27  A    between atoms: C_43  and  O_46 
REMARK   28  A    between atoms: C_44  and  O_45 
REMARK       I    between atoms: C_52  and  N_54 
REMARK   29  A    between atoms: N_54  and  C_55 
REMARK   30  A    between atoms: C_55  and  C_56 
REMARK   31  A    between atoms: C_56  and  C_57 
REMARK   32  A    between atoms: C_56  and  O_59 
REMARK   33  A    between atoms: C_57  and  O_58 
ROOT
HETATM    1  C   UNK N   1      25.454  12.243   3.707  0.00  0.00     0.154 C 
ENDROOT
BRANCH   1   2
HETATM    2  C   UNK N   1      24.394  12.069   2.699  0.00  0.00     0.165 C 
BRANCH   2   3
HETATM    3  N   UNK N   1      23.132  11.806   3.288  0.00  0.00    -0.320 N 
BRANCH   3   4
HETATM    4  C   UNK N   1      22.485  12.893   3.985  0.00  0.00     0.072 C 
HETATM    5  C   UNK N   1      21.896  12.619   5.240  0.00  0.00     0.051 C 
HETATM    6  C   UNK N   1      21.693  13.603   6.188  0.00  0.00     0.068 C 
HETATM    7  I   UNK N   1      20.487  10.951   5.347  0.00  0.00    -0.041 I 
HETATM    8  C   UNK N   1      21.853  14.967   5.777  0.00  0.00     0.040 C 
HETATM    9  C   UNK N   1      22.286  15.290   4.423  0.00  0.00     0.068 C 
HETATM   10  I   UNK N   1      21.026  16.453   7.073  0.00  0.00    -0.042 I 
HETATM   11  C   UNK N   1      22.533  14.209   3.527  0.00  0.00     0.051 C 
HETATM   12  I   UNK N   1      22.617  14.473   1.332  0.00  0.00    -0.041 I 
BRANCH   6  13
HETATM   13  C   UNK N   1      21.313  13.162   7.618  0.00  0.00     0.254 C 
HETATM   14  O   UNK N   1      20.270  13.547   8.105  0.00  0.00    -0.268 OA
HETATM   15  N   UNK N   1      22.145  12.461   8.455  0.00  0.00    -0.354 N 
HETATM   16  H   UNK N   1      21.762  12.242   9.336  0.00  0.00     0.162 HD
BRANCH  15  17
HETATM   17  C   UNK N   1      23.504  11.990   8.241  0.00  0.00     0.156 C 
BRANCH  17  18
HETATM   18  C   UNK N   1      24.325  11.978   9.557  0.00  0.00     0.159 C 
BRANCH  18  19
HETATM   19  C   UNK N   1      25.008  13.306   9.887  0.00  0.00     0.197 C 
BRANCH  19  20
HETATM   20  O   UNK N   1      25.741  13.195  11.069  0.00  0.00    -0.398 OA
HETATM   21  H   UNK N   1      25.462  12.573  11.758  0.00  0.00     0.209 HD
ENDBRANCH  19  20
ENDBRANCH  18  19
BRANCH  18  22
HETATM   22  O   UNK N   1      23.512  11.602  10.629  0.00  0.00    -0.392 OA
HETATM   23  H   UNK N   1      22.547  11.698  10.652  0.00  0.00     0.210 HD
ENDBRANCH  18  22
ENDBRANCH  17  18
ENDBRANCH  15  17
ENDBRANCH   6  13
BRANCH   9  24
HETATM   24  C   UNK N   1      22.536  16.697   3.891  0.00  0.00     0.254 C 
HETATM   25  N   UNK N   1      21.591  17.580   3.501  0.00  0.00    -0.354 N 
HETATM   26  H   UNK N   1      21.943  18.462   3.241  0.00  0.00     0.162 HD
HETATM   27  O   UNK N   1      23.670  17.149   3.949  0.00  0.00    -0.268 OA
BRANCH  25  28
HETATM   28  C   UNK N   1      20.165  17.461   3.401  0.00  0.00     0.156 C 
BRANCH  28  29
HETATM   29  C   UNK N   1      19.727  18.555   2.427  0.00  0.00     0.159 C 
BRANCH  29  30
HETATM   30  C   UNK N   1      20.542  19.830   2.511  0.00  0.00     0.197 C 
BRANCH  30  31
HETATM   31  O   UNK N   1      20.456  20.328   3.813  0.00  0.00    -0.398 OA
HETATM   32  H   UNK N   1      20.619  20.728   4.681  0.00  0.00     0.209 HD
ENDBRANCH  30  31
ENDBRANCH  29  30
BRANCH  29  33
HETATM   33  O   UNK N   1      18.359  18.801   2.479  0.00  0.00    -0.392 OA
HETATM   34  H   UNK N   1      17.835  19.509   2.885  0.00  0.00     0.210 HD
ENDBRANCH  29  33
ENDBRANCH  28  29
ENDBRANCH  25  28
ENDBRANCH   9  24
ENDBRANCH   3   4
BRANCH   3  35
HETATM   35  C   UNK N   1      22.451  10.794   2.651  0.00  0.00     0.356 C 
HETATM   36  O   UNK N   1      22.863   9.654   2.568  0.00  0.00    -0.283 OA
ENDBRANCH   3  35
ENDBRANCH   2   3
ENDBRANCH   1   2
BRANCH   1  37
HETATM   37  C   UNK N   1      26.652  12.396   2.871  0.00  0.00     0.159 C 
BRANCH  37  38
HETATM   38  N   UNK N   1      27.392  13.548   3.261  0.00  0.00    -0.343 N 
BRANCH  38  39
HETATM   39  C   UNK N   1      27.091  14.600   2.442  0.00  0.00     0.351 C 
HETATM   40  O   UNK N   1      27.837  15.061   1.608  0.00  0.00    -0.283 OA
ENDBRANCH  38  39
BRANCH  38  41
HETATM   41  C   UNK N   1      28.054  13.572   4.582  0.00  0.00     0.168 C 
HETATM   42  C   UNK N   1      27.884  14.819   5.244  0.00  0.00     0.029 C 
HETATM   43  C   UNK N   1      28.807  15.836   4.973  0.00  0.00     0.064 C 
HETATM   44  I   UNK N   1      26.160  15.178   6.468  0.00  0.00    -0.046 I 
HETATM   45  C   UNK N   1      30.027  15.489   4.357  0.00  0.00     0.040 C 
HETATM   46  C   UNK N   1      30.351  14.111   4.245  0.00  0.00     0.064 C 
HETATM   47  I   UNK N   1      31.456  17.001   3.909  0.00  0.00    -0.042 I 
HETATM   48  C   UNK N   1      29.368  13.139   4.500  0.00  0.00     0.029 C 
HETATM   49  I   UNK N   1      29.746  11.012   4.565  0.00  0.00    -0.046 I 
BRANCH  43  50
HETATM   50  C   UNK N   1      28.467  17.247   5.290  0.00  0.00     0.254 C 
HETATM   51  O   UNK N   1      27.823  17.891   4.478  0.00  0.00    -0.268 OA
HETATM   52  N   UNK N   1      28.841  17.840   6.449  0.00  0.00    -0.354 N 
HETATM   53  H   UNK N   1      28.500  18.741   6.650  0.00  0.00     0.162 HD
BRANCH  52  54
HETATM   54  C   UNK N   1      29.716  17.204   7.395  0.00  0.00     0.156 C 
BRANCH  54  55
HETATM   55  C   UNK N   1      29.696  18.012   8.680  0.00  0.00     0.159 C 
BRANCH  55  56
HETATM   56  C   UNK N   1      28.565  17.538   9.578  0.00  0.00     0.197 C 
BRANCH  56  57
HETATM   57  O   UNK N   1      27.396  18.236   9.279  0.00  0.00    -0.398 OA
HETATM   58  H   UNK N   1      26.835  18.707   9.915  0.00  0.00     0.209 HD
ENDBRANCH  56  57
ENDBRANCH  55  56
BRANCH  55  59
HETATM   59  O   UNK N   1      30.918  17.878   9.337  0.00  0.00    -0.392 OA
HETATM   60  H   UNK N   1      31.180  17.902  10.270  0.00  0.00     0.210 HD
ENDBRANCH  55  59
ENDBRANCH  54  55
ENDBRANCH  52  54
ENDBRANCH  43  50
BRANCH  46  61
HETATM   61  C   UNK N   1      31.687  13.670   3.834  0.00  0.00     0.254 C 
HETATM   62  O   UNK N   1      31.927  13.522   2.647  0.00  0.00    -0.268 OA
HETATM   63  N   UNK N   1      32.660  13.439   4.742  0.00  0.00    -0.354 N 
HETATM   64  H   UNK N   1      33.499  13.020   4.442  0.00  0.00     0.162 HD
BRANCH  63  65
HETATM   65  C   UNK N   1      32.516  13.785   6.139  0.00  0.00     0.156 C 
BRANCH  65  66
HETATM   66  C   UNK N   1      33.874  14.188   6.693  0.00  0.00     0.159 C 
BRANCH  66  67
HETATM   67  C   UNK N   1      34.400  15.367   5.886  0.00  0.00     0.197 C 
BRANCH  67  68
HETATM   68  O   UNK N   1      35.788  15.312   5.780  0.00  0.00    -0.398 OA
HETATM   69  H   UNK N   1      36.357  16.097   5.754  0.00  0.00     0.209 HD
ENDBRANCH  67  68
ENDBRANCH  66  67
BRANCH  66  70
HETATM   70  O   UNK N   1      33.739  14.543   8.039  0.00  0.00    -0.392 OA
HETATM   71  H   UNK N   1      34.049  14.148   8.869  0.00  0.00     0.210 HD
ENDBRANCH  66  70
ENDBRANCH  65  66
ENDBRANCH  63  65
ENDBRANCH  46  61
ENDBRANCH  38  41
ENDBRANCH  37  38
ENDBRANCH   1  37
BRANCH   1  72
HETATM   72  O   UNK N   1      25.565  11.161   4.585  0.00  0.00    -0.392 OA
HETATM   73  H   UNK N   1      25.663  11.025   5.541  0.00  0.00     0.210 HD
ENDBRANCH   1  72
TORSDOF 33
ENDMDL
MODEL 8
REMARK VINA RESULT:      -6.3      2.209     10.523
REMARK WARNING: 32 MAX_TORS EXCEEDED!!!
REMARK  33 active torsions:
REMARK  status: ('A' for Active; 'I' for Inactive)
REMARK    1  A    between atoms: C_1  and  C_2 
REMARK    2  A    between atoms: C_1  and  N_6 
REMARK    3  A    between atoms: C_2  and  C_3 
REMARK    4  A    between atoms: C_2  and  O_5 
REMARK    5  A    between atoms: C_3  and  O_4 
REMARK       I    between atoms: N_6  and  C_7 
REMARK    6  A    between atoms: C_7  and  C_9 
REMARK    7  A    between atoms: C_11  and  C_52 
REMARK    8  A    between atoms: C_13  and  N_16 
REMARK    9  A    between atoms: N_16  and  C_17 
REMARK   10  A    between atoms: N_16  and  C_49 
REMARK   11  A    between atoms: C_17  and  C_18 
REMARK   12  A    between atoms: C_18  and  C_19 
REMARK   13  A    between atoms: C_18  and  O_48 
REMARK   14  A    between atoms: C_19  and  N_20 
REMARK   15  A    between atoms: N_20  and  C_21 
REMARK   16  A    between atoms: N_20  and  C_23 
REMARK   17  A    between atoms: C_25  and  C_39 
REMARK   18  A    between atoms: C_27  and  C_30 
REMARK       I    between atoms: C_30  and  N_32 
REMARK   19  A    between atoms: N_32  and  C_33 
REMARK   20  A    between atoms: C_33  and  C_34 
REMARK   21  A    between atoms: C_34  and  C_35 
REMARK   22  A    between atoms: C_34  and  O_37 
REMARK   23  A    between atoms: C_35  and  O_36 
REMARK       I    between atoms: C_39  and  N_41 
REMARK   24  A    between atoms: N_41  and  C_42 
REMARK   25  A    between atoms: C_42  and  C_43 
REMARK   26  A    between atoms: C_43  and  C_44 
REMARK   27  A    between atoms: C_43  and  O_46 
REMARK   28  A    between atoms: C_44  and  O_45 
REMARK       I    between atoms: C_52  and  N_54 
REMARK   29  A    between atoms: N_54  and  C_55 
REMARK   30  A    between atoms: C_55  and  C_56 
REMARK   31  A    between atoms: C_56  and  C_57 
REMARK   32  A    between atoms: C_56  and  O_59 
REMARK   33  A    between atoms: C_57  and  O_58 
ROOT
HETATM    1  C   UNK N   1      25.790  17.044   4.983  0.00  0.00     0.154 C 
ENDROOT
BRANCH   1   2
HETATM    2  C   UNK N   1      27.088  16.821   4.322  0.00  0.00     0.165 C 
BRANCH   2   3
HETATM    3  N   UNK N   1      28.161  17.414   5.033  0.00  0.00    -0.320 N 
BRANCH   3   4
HETATM    4  C   UNK N   1      29.064  16.530   5.730  0.00  0.00     0.072 C 
HETATM    5  C   UNK N   1      29.542  15.393   5.041  0.00  0.00     0.051 C 
HETATM    6  C   UNK N   1      30.725  14.767   5.383  0.00  0.00     0.068 C 
HETATM    7  I   UNK N   1      28.058  14.081   4.113  0.00  0.00    -0.041 I 
HETATM    8  C   UNK N   1      31.338  15.136   6.626  0.00  0.00     0.040 C 
HETATM    9  C   UNK N   1      30.762  16.188   7.455  0.00  0.00     0.068 C 
HETATM   10  I   UNK N   1      32.834  13.807   7.380  0.00  0.00    -0.042 I 
HETATM   11  C   UNK N   1      29.573  16.824   6.994  0.00  0.00     0.051 C 
HETATM   12  I   UNK N   1      28.246  17.986   8.330  0.00  0.00    -0.041 I 
BRANCH   6  13
HETATM   13  C   UNK N   1      31.301  13.722   4.404  0.00  0.00     0.254 C 
HETATM   14  O   UNK N   1      31.324  12.551   4.724  0.00  0.00    -0.268 OA
HETATM   15  N   UNK N   1      31.929  14.035   3.224  0.00  0.00    -0.354 N 
HETATM   16  H   UNK N   1      32.237  13.262   2.697  0.00  0.00     0.162 HD
BRANCH  15  17
HETATM   17  C   UNK N   1      32.207  15.333   2.630  0.00  0.00     0.156 C 
BRANCH  17  18
HETATM   18  C   UNK N   1      33.403  16.039   3.319  0.00  0.00     0.159 C 
BRANCH  18  19
HETATM   19  C   UNK N   1      33.007  17.173   4.265  0.00  0.00     0.197 C 
BRANCH  19  20
HETATM   20  O   UNK N   1      31.905  17.865   3.760  0.00  0.00    -0.398 OA
HETATM   21  H   UNK N   1      32.019  18.748   3.377  0.00  0.00     0.209 HD
ENDBRANCH  19  20
ENDBRANCH  18  19
BRANCH  18  22
HETATM   22  O   UNK N   1      34.175  15.108   4.019  0.00  0.00    -0.392 OA
HETATM   23  H   UNK N   1      34.589  15.269   4.881  0.00  0.00     0.210 HD
ENDBRANCH  18  22
ENDBRANCH  17  18
ENDBRANCH  15  17
ENDBRANCH   6  13
BRANCH   9  24
HETATM   24  C   UNK N   1      31.352  16.696   8.767  0.00  0.00     0.254 C 
HETATM   25  N   UNK N   1      32.337  17.611   8.895  0.00  0.00    -0.354 N 
HETATM   26  H   UNK N   1      32.545  17.856   9.826  0.00  0.00     0.162 HD
HETATM   27  O   UNK N   1      30.806  16.379   9.813  0.00  0.00    -0.268 OA
BRANCH  25  28
HETATM   28  C   UNK N   1      33.135  18.289   7.915  0.00  0.00     0.156 C 
BRANCH  28  29
HETATM   29  C   UNK N   1      34.587  17.976   8.276  0.00  0.00     0.159 C 
BRANCH  29  30
HETATM   30  C   UNK N   1      34.754  16.852   9.279  0.00  0.00     0.197 C 
BRANCH  30  31
HETATM   31  O   UNK N   1      34.970  17.410  10.540  0.00  0.00    -0.398 OA
HETATM   32  H   UNK N   1      35.187  17.982  11.293  0.00  0.00     0.209 HD
ENDBRANCH  30  31
ENDBRANCH  29  30
BRANCH  29  33
HETATM   33  O   UNK N   1      35.307  19.111   8.633  0.00  0.00    -0.392 OA
HETATM   34  H   UNK N   1      35.420  19.976   8.209  0.00  0.00     0.210 HD
ENDBRANCH  29  33
ENDBRANCH  28  29
ENDBRANCH  25  28
ENDBRANCH   9  24
ENDBRANCH   3   4
BRANCH   3  35
HETATM   35  C   UNK N   1      28.533  18.631   4.510  0.00  0.00     0.356 C 
HETATM   36  O   UNK N   1      27.746  19.444   4.069  0.00  0.00    -0.283 OA
ENDBRANCH   3  35
ENDBRANCH   2   3
ENDBRANCH   1   2
BRANCH   1  37
HETATM   37  C   UNK N   1      24.842  16.830   3.881  0.00  0.00     0.159 C 
BRANCH  37  38
HETATM   38  N   UNK N   1      23.930  15.784   4.201  0.00  0.00    -0.343 N 
BRANCH  38  39
HETATM   39  C   UNK N   1      24.011  14.786   3.271  0.00  0.00     0.351 C 
HETATM   40  O   UNK N   1      24.898  14.673   2.456  0.00  0.00    -0.283 OA
ENDBRANCH  38  39
BRANCH  38  41
HETATM   41  C   UNK N   1      23.326  15.738   5.549  0.00  0.00     0.168 C 
HETATM   42  C   UNK N   1      23.582  14.504   6.208  0.00  0.00     0.029 C 
HETATM   43  C   UNK N   1      22.698  13.442   5.981  0.00  0.00     0.064 C 
HETATM   44  I   UNK N   1      25.372  14.234   7.360  0.00  0.00    -0.046 I 
HETATM   45  C   UNK N   1      21.438  13.728   5.417  0.00  0.00     0.040 C 
HETATM   46  C   UNK N   1      21.045  15.089   5.313  0.00  0.00     0.064 C 
HETATM   47  I   UNK N   1      20.065  12.147   5.036  0.00  0.00    -0.042 I 
HETATM   48  C   UNK N   1      21.990  16.108   5.522  0.00  0.00     0.029 C 
HETATM   49  I   UNK N   1      21.515  18.215   5.594  0.00  0.00    -0.046 I 
BRANCH  43  50
HETATM   50  C   UNK N   1      23.118  12.051   6.289  0.00  0.00     0.254 C 
HETATM   51  O   UNK N   1      23.671  11.400   5.418  0.00  0.00    -0.268 OA
HETATM   52  N   UNK N   1      22.913  11.484   7.501  0.00  0.00    -0.354 N 
HETATM   53  H   UNK N   1      23.304  10.599   7.681  0.00  0.00     0.162 HD
BRANCH  52  54
HETATM   54  C   UNK N   1      22.148  12.125   8.536  0.00  0.00     0.156 C 
BRANCH  54  55
HETATM   55  C   UNK N   1      23.057  12.350   9.730  0.00  0.00     0.159 C 
BRANCH  55  56
HETATM   56  C   UNK N   1      22.316  12.030  11.018  0.00  0.00     0.197 C 
BRANCH  56  57
HETATM   57  O   UNK N   1      23.114  12.343  12.117  0.00  0.00    -0.398 OA
HETATM   58  H   UNK N   1      23.905  12.903  12.106  0.00  0.00     0.209 HD
ENDBRANCH  56  57
ENDBRANCH  55  56
BRANCH  55  59
HETATM   59  O   UNK N   1      24.189  11.546   9.616  0.00  0.00    -0.392 OA
HETATM   60  H   UNK N   1      25.070  11.573  10.021  0.00  0.00     0.210 HD
ENDBRANCH  55  59
ENDBRANCH  54  55
ENDBRANCH  52  54
ENDBRANCH  43  50
BRANCH  46  61
HETATM   61  C   UNK N   1      19.673  15.464   4.957  0.00  0.00     0.254 C 
HETATM   62  O   UNK N   1      18.848  15.615   5.842  0.00  0.00    -0.268 OA
HETATM   63  N   UNK N   1      19.311  15.657   3.669  0.00  0.00    -0.354 N 
HETATM   64  H   UNK N   1      18.357  15.777   3.459  0.00  0.00     0.162 HD
BRANCH  63  65
HETATM   65  C   UNK N   1      20.272  15.696   2.589  0.00  0.00     0.156 C 
BRANCH  65  66
HETATM   66  C   UNK N   1      19.768  16.640   1.510  0.00  0.00     0.159 C 
BRANCH  66  67
HETATM   67  C   UNK N   1      19.826  18.066   2.042  0.00  0.00     0.197 C 
BRANCH  67  68
HETATM   68  O   UNK N   1      18.561  18.498   2.433  0.00  0.00    -0.398 OA
HETATM   69  H   UNK N   1      18.405  19.107   3.172  0.00  0.00     0.209 HD
ENDBRANCH  67  68
ENDBRANCH  66  67
BRANCH  66  70
HETATM   70  O   UNK N   1      20.572  16.515   0.372  0.00  0.00    -0.392 OA
HETATM   71  H   UNK N   1      20.409  16.196  -0.529  0.00  0.00     0.210 HD
ENDBRANCH  66  70
ENDBRANCH  65  66
ENDBRANCH  63  65
ENDBRANCH  46  61
ENDBRANCH  38  41
ENDBRANCH  37  38
ENDBRANCH   1  37
BRANCH   1  72
HETATM   72  O   UNK N   1      25.664  18.321   5.538  0.00  0.00    -0.392 OA
HETATM   73  H   UNK N   1      25.181  19.139   5.344  0.00  0.00     0.210 HD
ENDBRANCH   1  72
TORSDOF 33
ENDMDL
MODEL 9
REMARK VINA RESULT:      -6.3      1.703      2.300
REMARK WARNING: 32 MAX_TORS EXCEEDED!!!
REMARK  33 active torsions:
REMARK  status: ('A' for Active; 'I' for Inactive)
REMARK    1  A    between atoms: C_1  and  C_2 
REMARK    2  A    between atoms: C_1  and  N_6 
REMARK    3  A    between atoms: C_2  and  C_3 
REMARK    4  A    between atoms: C_2  and  O_5 
REMARK    5  A    between atoms: C_3  and  O_4 
REMARK       I    between atoms: N_6  and  C_7 
REMARK    6  A    between atoms: C_7  and  C_9 
REMARK    7  A    between atoms: C_11  and  C_52 
REMARK    8  A    between atoms: C_13  and  N_16 
REMARK    9  A    between atoms: N_16  and  C_17 
REMARK   10  A    between atoms: N_16  and  C_49 
REMARK   11  A    between atoms: C_17  and  C_18 
REMARK   12  A    between atoms: C_18  and  C_19 
REMARK   13  A    between atoms: C_18  and  O_48 
REMARK   14  A    between atoms: C_19  and  N_20 
REMARK   15  A    between atoms: N_20  and  C_21 
REMARK   16  A    between atoms: N_20  and  C_23 
REMARK   17  A    between atoms: C_25  and  C_39 
REMARK   18  A    between atoms: C_27  and  C_30 
REMARK       I    between atoms: C_30  and  N_32 
REMARK   19  A    between atoms: N_32  and  C_33 
REMARK   20  A    between atoms: C_33  and  C_34 
REMARK   21  A    between atoms: C_34  and  C_35 
REMARK   22  A    between atoms: C_34  and  O_37 
REMARK   23  A    between atoms: C_35  and  O_36 
REMARK       I    between atoms: C_39  and  N_41 
REMARK   24  A    between atoms: N_41  and  C_42 
REMARK   25  A    between atoms: C_42  and  C_43 
REMARK   26  A    between atoms: C_43  and  C_44 
REMARK   27  A    between atoms: C_43  and  O_46 
REMARK   28  A    between atoms: C_44  and  O_45 
REMARK       I    between atoms: C_52  and  N_54 
REMARK   29  A    between atoms: N_54  and  C_55 
REMARK   30  A    between atoms: C_55  and  C_56 
REMARK   31  A    between atoms: C_56  and  C_57 
REMARK   32  A    between atoms: C_56  and  O_59 
REMARK   33  A    between atoms: C_57  and  O_58 
ROOT
HETATM    1  C   UNK N   1      25.971  13.833   2.865  0.00  0.00     0.154 C 
ENDROOT
BRANCH   1   2
HETATM    2  C   UNK N   1      24.825  14.741   2.686  0.00  0.00     0.165 C 
BRANCH   2   3
HETATM    3  N   UNK N   1      23.604  14.153   3.102  0.00  0.00    -0.320 N 
BRANCH   3   4
HETATM    4  C   UNK N   1      23.106  14.512   4.409  0.00  0.00     0.072 C 
HETATM    5  C   UNK N   1      22.760  15.863   4.639  0.00  0.00     0.051 C 
HETATM    6  C   UNK N   1      21.860  16.236   5.617  0.00  0.00     0.068 C 
HETATM    7  I   UNK N   1      24.261  17.381   4.161  0.00  0.00    -0.041 I 
HETATM    8  C   UNK N   1      21.472  15.245   6.578  0.00  0.00     0.040 C 
HETATM    9  C   UNK N   1      21.960  13.875   6.472  0.00  0.00     0.068 C 
HETATM   10  I   UNK N   1      20.527  15.964   8.357  0.00  0.00    -0.042 I 
HETATM   11  C   UNK N   1      22.838  13.563   5.394  0.00  0.00     0.051 C 
HETATM   12  I   UNK N   1      24.127  11.764   5.386  0.00  0.00    -0.041 I 
BRANCH   6  13
HETATM   13  C   UNK N   1      21.335  17.688   5.602  0.00  0.00     0.254 C 
HETATM   14  O   UNK N   1      21.649  18.446   6.497  0.00  0.00    -0.268 OA
HETATM   15  N   UNK N   1      20.410  18.165   4.707  0.00  0.00    -0.354 N 
HETATM   16  H   UNK N   1      20.177  19.116   4.814  0.00  0.00     0.162 HD
BRANCH  15  17
HETATM   17  C   UNK N   1      19.722  17.481   3.624  0.00  0.00     0.156 C 
BRANCH  17  18
HETATM   18  C   UNK N   1      19.582  18.382   2.369  0.00  0.00     0.159 C 
BRANCH  18  19
HETATM   19  C   UNK N   1      20.075  17.740   1.072  0.00  0.00     0.197 C 
BRANCH  19  20
HETATM   20  O   UNK N   1      20.379  18.721   0.128  0.00  0.00    -0.398 OA
HETATM   21  H   UNK N   1      19.666  19.182  -0.341  0.00  0.00     0.209 HD
ENDBRANCH  19  20
ENDBRANCH  18  19
BRANCH  18  22
HETATM   22  O   UNK N   1      18.253  18.780   2.206  0.00  0.00    -0.392 OA
HETATM   23  H   UNK N   1      17.739  18.671   1.391  0.00  0.00     0.210 HD
ENDBRANCH  18  22
ENDBRANCH  17  18
ENDBRANCH  15  17
ENDBRANCH   6  13
BRANCH   9  24
HETATM   24  C   UNK N   1      21.577  12.730   7.404  0.00  0.00     0.254 C 
HETATM   25  N   UNK N   1      21.977  12.579   8.685  0.00  0.00    -0.354 N 
HETATM   26  H   UNK N   1      21.579  11.805   9.145  0.00  0.00     0.162 HD
HETATM   27  O   UNK N   1      20.717  11.943   7.037  0.00  0.00    -0.268 OA
BRANCH  25  28
HETATM   28  C   UNK N   1      22.880  13.347   9.494  0.00  0.00     0.156 C 
BRANCH  28  29
HETATM   29  C   UNK N   1      23.214  12.460  10.694  0.00  0.00     0.159 C 
BRANCH  29  30
HETATM   30  C   UNK N   1      24.639  11.943  10.712  0.00  0.00     0.197 C 
BRANCH  30  31
HETATM   31  O   UNK N   1      25.382  12.720  11.603  0.00  0.00    -0.398 OA
HETATM   32  H   UNK N   1      26.039  13.074  12.223  0.00  0.00     0.209 HD
ENDBRANCH  30  31
ENDBRANCH  29  30
BRANCH  29  33
HETATM   33  O   UNK N   1      22.284  11.445  10.885  0.00  0.00    -0.392 OA
HETATM   34  H   UNK N   1      21.764  11.169  11.657  0.00  0.00     0.210 HD
ENDBRANCH  29  33
ENDBRANCH  28  29
ENDBRANCH  25  28
ENDBRANCH   9  24
ENDBRANCH   3   4
BRANCH   3  35
HETATM   35  C   UNK N   1      22.795  13.809   2.043  0.00  0.00     0.356 C 
HETATM   36  O   UNK N   1      23.174  13.161   1.089  0.00  0.00    -0.283 OA
ENDBRANCH   3  35
ENDBRANCH   2   3
ENDBRANCH   1   2
BRANCH   1  37
HETATM   37  C   UNK N   1      27.108  14.763   2.841  0.00  0.00     0.159 C 
BRANCH  37  38
HETATM   38  N   UNK N   1      28.322  14.077   3.129  0.00  0.00    -0.343 N 
BRANCH  38  39
HETATM   39  C   UNK N   1      29.071  13.948   1.993  0.00  0.00     0.351 C 
HETATM   40  O   UNK N   1      29.013  13.009   1.232  0.00  0.00    -0.283 OA
ENDBRANCH  38  39
BRANCH  38  41
HETATM   41  C   UNK N   1      28.750  13.921   4.535  0.00  0.00     0.168 C 
HETATM   42  C   UNK N   1      28.462  15.076   5.314  0.00  0.00     0.029 C 
HETATM   43  C   UNK N   1      29.411  16.105   5.337  0.00  0.00     0.064 C 
HETATM   44  I   UNK N   1      26.552  15.302   6.265  0.00  0.00    -0.046 I 
HETATM   45  C   UNK N   1      30.720  15.821   4.897  0.00  0.00     0.040 C 
HETATM   46  C   UNK N   1      31.067  14.463   4.665  0.00  0.00     0.064 C 
HETATM   47  I   UNK N   1      32.194  17.356   4.896  0.00  0.00    -0.042 I 
HETATM   48  C   UNK N   1      30.062  13.482   4.623  0.00  0.00     0.029 C 
HETATM   49  I   UNK N   1      30.437  11.359   4.476  0.00  0.00    -0.046 I 
BRANCH  43  50
HETATM   50  C   UNK N   1      29.012  17.469   5.770  0.00  0.00     0.254 C 
HETATM   51  O   UNK N   1      28.696  18.285   4.920  0.00  0.00    -0.268 OA
HETATM   52  N   UNK N   1      28.982  17.835   7.074  0.00  0.00    -0.354 N 
HETATM   53  H   UNK N   1      28.612  18.716   7.309  0.00  0.00     0.162 HD
BRANCH  52  54
HETATM   54  C   UNK N   1      29.470  16.987   8.126  0.00  0.00     0.156 C 
BRANCH  54  55
HETATM   55  C   UNK N   1      28.934  17.509   9.446  0.00  0.00     0.159 C 
BRANCH  55  56
HETATM   56  C   UNK N   1      29.768  18.688   9.919  0.00  0.00     0.197 C 
BRANCH  56  57
HETATM   57  O   UNK N   1      30.980  18.720   9.231  0.00  0.00    -0.398 OA
HETATM   58  H   UNK N   1      31.449  19.517   8.938  0.00  0.00     0.209 HD
ENDBRANCH  56  57
ENDBRANCH  55  56
BRANCH  55  59
HETATM   59  O   UNK N   1      27.603  17.894   9.292  0.00  0.00    -0.392 OA
HETATM   60  H   UNK N   1      26.862  17.543   8.775  0.00  0.00     0.210 HD
ENDBRANCH  55  59
ENDBRANCH  54  55
ENDBRANCH  52  54
ENDBRANCH  43  50
BRANCH  46  61
HETATM   61  C   UNK N   1      32.456  14.059   4.432  0.00  0.00     0.254 C 
HETATM   62  O   UNK N   1      32.899  14.071   3.296  0.00  0.00    -0.268 OA
HETATM   63  N   UNK N   1      33.259  13.686   5.454  0.00  0.00    -0.354 N 
HETATM   64  H   UNK N   1      34.139  13.296   5.248  0.00  0.00     0.162 HD
BRANCH  63  65
HETATM   65  C   UNK N   1      32.873  13.839   6.840  0.00  0.00     0.156 C 
BRANCH  65  66
HETATM   66  C   UNK N   1      33.587  12.787   7.673  0.00  0.00     0.159 C 
BRANCH  66  67
HETATM   67  C   UNK N   1      33.720  13.300   9.100  0.00  0.00     0.197 C 
BRANCH  67  68
HETATM   68  O   UNK N   1      35.047  13.598   9.397  0.00  0.00    -0.398 OA
HETATM   69  H   UNK N   1      35.796  13.326   8.844  0.00  0.00     0.209 HD
ENDBRANCH  67  68
ENDBRANCH  66  67
BRANCH  66  70
HETATM   70  O   UNK N   1      32.849  11.600   7.651  0.00  0.00    -0.392 OA
HETATM   71  H   UNK N   1      32.782  10.843   8.255  0.00  0.00     0.210 HD
ENDBRANCH  66  70
ENDBRANCH  65  66
ENDBRANCH  63  65
ENDBRANCH  46  61
ENDBRANCH  38  41
ENDBRANCH  37  38
ENDBRANCH   1  37
BRANCH   1  72
HETATM   72  O   UNK N   1      26.069  12.862   1.865  0.00  0.00    -0.392 OA
HETATM   73  H   UNK N   1      26.767  12.329   1.454  0.00  0.00     0.210 HD
ENDBRANCH   1  72
TORSDOF 33
ENDMDL
