MODEL 1
REMARK VINA RESULT:     -14.3      0.000      0.000
REMARK  10 active torsions:
REMARK  status: ('A' for Active; 'I' for Inactive)
REMARK    1  A    between atoms: C_25  and  C_21 
REMARK    2  A    between atoms: C_23  and  C_22 
REMARK    3  A    between atoms: C_30  and  C_22 
REMARK    4  A    between atoms: N_33  and  C_24 
REMARK    5  A    between atoms: O_41  and  C_25 
REMARK    6  A    between atoms: C_27  and  C_26 
REMARK    7  A    between atoms: N_32  and  C_28 
REMARK    8  A    between atoms: N_34  and  C_29 
REMARK    9  A    between atoms: C_30  and  N_33 
REMARK   10  A    between atoms: S_43  and  N_34 
ROOT
HETATM    1  C   UNK N   1      24.184  14.057   6.725  0.00  0.00     0.152 A 
HETATM    2  C   UNK N   1      24.384  12.960   7.618  0.00  0.00     0.152 A 
HETATM    3  C   UNK N   1      17.090  17.406   9.375  0.00  0.00     0.210 A 
HETATM    4  C   UNK N   1      23.093  11.343  10.247  0.00  0.00     0.210 A 
HETATM    5  C   UNK N   1      20.479  16.808   7.143  0.00  0.00     0.210 A 
HETATM    6  C   UNK N   1      20.524  12.918  10.857  0.00  0.00     0.001 A 
HETATM    7  C   UNK N   1      21.014  12.286  11.060  0.00  0.00     0.003 A 
HETATM    8  C   UNK N   1      20.722  13.406  10.222  0.00  0.00     0.013 A 
HETATM    9  C   UNK N   1      21.703  12.142  10.627  0.00  0.00     0.037 A 
HETATM   10  C   UNK N   1      22.338  15.113   7.237  0.00  0.00     0.026 A 
HETATM   11  C   UNK N   1      18.339  16.327   9.380  0.00  0.00     0.038 A 
HETATM   12  C   UNK N   1      21.650  15.256   7.669  0.00  0.00     0.033 A 
HETATM   13  C   UNK N   1      18.963  15.788   9.382  0.00  0.00     0.031 A 
HETATM   14  C   UNK N   1      22.631  13.993   8.074  0.00  0.00     0.036 A 
HETATM   15  C   UNK N   1      23.408  12.711   8.666  0.00  0.00     0.068 A 
HETATM   16  C   UNK N   1      18.919  16.993   8.257  0.00  0.00     0.075 A 
HETATM   17  C   UNK N   1      22.333  12.651   9.615  0.00  0.00     0.151 A 
HETATM   18  C   UNK N   1      22.828  14.481   7.440  0.00  0.00     0.034 A 
HETATM   19  C   UNK N   1      23.139  12.272   9.312  0.00  0.00     0.138 A 
HETATM   20  C   UNK N   1      18.317  16.929   8.817  0.00  0.00     0.070 A 
HETATM   21  C   UNK N   1      21.410  13.263   9.790  0.00  0.00     0.017 A 
HETATM   22  C   UNK N   1      21.942  14.136   8.507  0.00  0.00     0.014 A 
HETATM   23  C   UNK N   1      21.452  14.767   8.304  0.00  0.00     0.063 A 
HETATM   24  C   UNK N   1      22.866  13.319   8.530  0.00  0.00     0.176 A 
HETATM   25  C   UNK N   1      21.900  12.631   9.993  0.00  0.00     0.077 A 
HETATM   26  C   UNK N   1      19.543  16.454   8.259  0.00  0.00     0.094 A 
HETATM   27  C   UNK N   1      19.566  15.851   8.822  0.00  0.00     0.113 A 
HETATM   28  C   UNK N   1      23.214  13.804   7.773  0.00  0.00     0.241 A 
HETATM   29  C   UNK N   1      20.911  14.145   9.353  0.00  0.00     0.276 A 
HETATM   30  C   UNK N   1      21.608  13.751   9.155  0.00  0.00     0.172 A 
HETATM   31 Cl   UNK N   1      23.472  14.587   6.804  0.00  0.00    -0.084 Cl
HETATM   32  N   UNK N   1      23.934  13.605   7.368  0.00  0.00    -0.359 N 
HETATM   33  N   UNK N   1      22.264  13.255   9.090  0.00  0.00    -0.373 N 
HETATM   34  N   UNK N   1      20.814  14.773   8.827  0.00  0.00    -0.201 N 
HETATM   35  O   UNK N   1      23.823  11.662   9.334  0.00  0.00    -0.394 OA
HETATM   36  O   UNK N   1      22.522  14.378   7.793  0.00  0.00    -0.271 OA
HETATM   37  O   UNK N   1      20.395  13.919   9.998  0.00  0.00    -0.268 OA
HETATM   38  O   UNK N   1      20.393  15.781   8.204  0.00  0.00    -0.199 OA
HETATM   39  O   UNK N   1      19.700  14.980   9.550  0.00  0.00    -0.199 OA
HETATM   40  O   UNK N   1      17.692  17.469   8.815  0.00  0.00    -0.356 OA
HETATM   41  O   UNK N   1      22.683  12.068   9.887  0.00  0.00    -0.355 OA
HETATM   42  O   UNK N   1      19.786  16.973   7.558  0.00  0.00    -0.354 OA
HETATM   43  S   UNK N   1      20.161  15.283   8.876  0.00  0.00     0.274 SA
HETATM   44  H   UNK N   1      23.826  10.962  10.007  0.00  0.00     0.210 HD
ENDROOT
TORSDOF 10
ENDMDL
MODEL 2
REMARK VINA RESULT:     -13.9      8.518      9.192
REMARK  10 active torsions:
REMARK  status: ('A' for Active; 'I' for Inactive)
REMARK    1  A    between atoms: C_25  and  C_21 
REMARK    2  A    between atoms: C_23  and  C_22 
REMARK    3  A    between atoms: C_30  and  C_22 
REMARK    4  A    between atoms: N_33  and  C_24 
REMARK    5  A    between atoms: O_41  and  C_25 
REMARK    6  A    between atoms: C_27  and  C_26 
REMARK    7  A    between atoms: N_32  and  C_28 
REMARK    8  A    between atoms: N_34  and  C_29 
REMARK    9  A    between atoms: C_30  and  N_33 
REMARK   10  A    between atoms: S_43  and  N_34 
ROOT
HETATM    1  C   UNK N   1      29.312  18.285   9.813  0.00  0.00     0.152 A 
HETATM    2  C   UNK N   1      30.282  17.321   9.399  0.00  0.00     0.152 A 
HETATM    3  C   UNK N   1      25.735  20.563   2.700  0.00  0.00     0.210 A 
HETATM    4  C   UNK N   1      31.560  15.737   6.743  0.00  0.00     0.210 A 
HETATM    5  C   UNK N   1      26.576  20.373   6.711  0.00  0.00     0.210 A 
HETATM    6  C   UNK N   1      29.951  16.887   4.390  0.00  0.00     0.001 A 
HETATM    7  C   UNK N   1      30.545  16.371   4.636  0.00  0.00     0.003 A 
HETATM    8  C   UNK N   1      29.547  17.346   4.944  0.00  0.00     0.013 A 
HETATM    9  C   UNK N   1      30.735  16.313   5.438  0.00  0.00     0.037 A 
HETATM   10  C   UNK N   1      28.222  19.043   8.074  0.00  0.00     0.026 A 
HETATM   11  C   UNK N   1      26.789  19.722   3.654  0.00  0.00     0.038 A 
HETATM   12  C   UNK N   1      28.032  19.101   7.273  0.00  0.00     0.033 A 
HETATM   13  C   UNK N   1      27.315  19.303   4.130  0.00  0.00     0.031 A 
HETATM   14  C   UNK N   1      29.220  18.068   7.767  0.00  0.00     0.036 A 
HETATM   15  C   UNK N   1      30.405  16.997   7.987  0.00  0.00     0.068 A 
HETATM   16  C   UNK N   1      26.267  20.380   4.810  0.00  0.00     0.075 A 
HETATM   17  C   UNK N   1      30.354  16.834   6.562  0.00  0.00     0.151 A 
HETATM   18  C   UNK N   1      28.816  18.526   8.321  0.00  0.00     0.034 A 
HETATM   19  C   UNK N   1      30.759  16.576   7.372  0.00  0.00     0.138 A 
HETATM   20  C   UNK N   1      26.265  20.261   3.993  0.00  0.00     0.070 A 
HETATM   21  C   UNK N   1      29.736  17.288   5.744  0.00  0.00     0.017 A 
HETATM   22  C   UNK N   1      29.031  18.126   6.966  0.00  0.00     0.014 A 
HETATM   23  C   UNK N   1      28.437  18.642   6.719  0.00  0.00     0.063 A 
HETATM   24  C   UNK N   1      29.827  17.487   7.658  0.00  0.00     0.176 A 
HETATM   25  C   UNK N   1      30.330  16.771   5.991  0.00  0.00     0.077 A 
HETATM   26  C   UNK N   1      26.794  19.960   5.286  0.00  0.00     0.094 A 
HETATM   27  C   UNK N   1      27.318  19.422   4.946  0.00  0.00     0.113 A 
HETATM   28  C   UNK N   1      29.440  17.958   8.405  0.00  0.00     0.241 A 
HETATM   29  C   UNK N   1      28.925  18.028   5.640  0.00  0.00     0.276 A 
HETATM   30  C   UNK N   1      29.332  17.746   6.299  0.00  0.00     0.172 A 
HETATM   31 Cl   UNK N   1      28.785  18.688   9.217  0.00  0.00    -0.084 Cl
HETATM   32  N   UNK N   1      29.680  17.854   9.213  0.00  0.00    -0.359 N 
HETATM   33  N   UNK N   1      29.825  17.368   6.842  0.00  0.00    -0.373 N 
HETATM   34  N   UNK N   1      28.371  18.582   5.899  0.00  0.00    -0.201 N 
HETATM   35  O   UNK N   1      31.353  16.099   7.881  0.00  0.00    -0.394 OA
HETATM   36  O   UNK N   1      28.876  18.402   7.863  0.00  0.00    -0.271 OA
HETATM   37  O   UNK N   1      29.071  17.773   4.835  0.00  0.00    -0.268 OA
HETATM   38  O   UNK N   1      27.458  19.443   5.972  0.00  0.00    -0.199 OA
HETATM   39  O   UNK N   1      28.086  18.654   4.587  0.00  0.00    -0.199 OA
HETATM   40  O   UNK N   1      25.738  20.681   3.517  0.00  0.00    -0.356 OA
HETATM   41  O   UNK N   1      30.893  16.347   6.657  0.00  0.00    -0.355 OA
HETATM   42  O   UNK N   1      26.367  20.451   5.916  0.00  0.00    -0.354 OA
HETATM   43  S   UNK N   1      27.867  18.973   5.368  0.00  0.00     0.274 SA
HETATM   44  H   UNK N   1      31.960  15.471   7.457  0.00  0.00     0.210 HD
ENDROOT
TORSDOF 10
ENDMDL
MODEL 3
REMARK VINA RESULT:     -13.8     14.387     16.248
REMARK  10 active torsions:
REMARK  status: ('A' for Active; 'I' for Inactive)
REMARK    1  A    between atoms: C_25  and  C_21 
REMARK    2  A    between atoms: C_23  and  C_22 
REMARK    3  A    between atoms: C_30  and  C_22 
REMARK    4  A    between atoms: N_33  and  C_24 
REMARK    5  A    between atoms: O_41  and  C_25 
REMARK    6  A    between atoms: C_27  and  C_26 
REMARK    7  A    between atoms: N_32  and  C_28 
REMARK    8  A    between atoms: N_34  and  C_29 
REMARK    9  A    between atoms: C_30  and  N_33 
REMARK   10  A    between atoms: S_43  and  N_34 
ROOT
HETATM    1  C   UNK N   1      35.262   8.414  17.418  0.00  0.00     0.152 A 
HETATM    2  C   UNK N   1      35.298   9.183  18.621  0.00  0.00     0.152 A 
HETATM    3  C   UNK N   1      34.960  14.173  11.477  0.00  0.00     0.210 A 
HETATM    4  C   UNK N   1      35.303  12.300  19.839  0.00  0.00     0.210 A 
HETATM    5  C   UNK N   1      35.077  10.491  13.281  0.00  0.00     0.210 A 
HETATM    6  C   UNK N   1      35.184  14.048  17.313  0.00  0.00     0.001 A 
HETATM    7  C   UNK N   1      35.216  14.022  18.137  0.00  0.00     0.003 A 
HETATM    8  C   UNK N   1      35.177  13.347  16.879  0.00  0.00     0.013 A 
HETATM    9  C   UNK N   1      35.240  13.294  18.527  0.00  0.00     0.037 A 
HETATM   10  C   UNK N   1      35.178   9.742  15.682  0.00  0.00     0.026 A 
HETATM   11  C   UNK N   1      35.026  13.613  13.028  0.00  0.00     0.038 A 
HETATM   12  C   UNK N   1      35.154  10.469  15.292  0.00  0.00     0.033 A 
HETATM   13  C   UNK N   1      35.060  13.334  13.803  0.00  0.00     0.031 A 
HETATM   14  C   UNK N   1      35.217  10.416  16.940  0.00  0.00     0.036 A 
HETATM   15  C   UNK N   1      35.275  10.635  18.536  0.00  0.00     0.068 A 
HETATM   16  C   UNK N   1      35.026  12.269  12.542  0.00  0.00     0.075 A 
HETATM   17  C   UNK N   1      35.245  12.035  18.222  0.00  0.00     0.151 A 
HETATM   18  C   UNK N   1      35.210   9.715  16.506  0.00  0.00     0.034 A 
HETATM   19  C   UNK N   1      35.279  11.378  18.895  0.00  0.00     0.138 A 
HETATM   20  C   UNK N   1      35.009  13.081  12.398  0.00  0.00     0.070 A 
HETATM   21  C   UNK N   1      35.201  12.620  17.267  0.00  0.00     0.017 A 
HETATM   22  C   UNK N   1      35.193  11.144  16.552  0.00  0.00     0.014 A 
HETATM   23  C   UNK N   1      35.161  11.170  15.728  0.00  0.00     0.063 A 
HETATM   24  C   UNK N   1      35.243  10.748  17.719  0.00  0.00     0.176 A 
HETATM   25  C   UNK N   1      35.233  12.594  18.091  0.00  0.00     0.077 A 
HETATM   26  C   UNK N   1      35.059  11.989  13.318  0.00  0.00     0.094 A 
HETATM   27  C   UNK N   1      35.076  12.522  13.948  0.00  0.00     0.113 A 
HETATM   28  C   UNK N   1      35.240   9.862  17.340  0.00  0.00     0.241 A 
HETATM   29  C   UNK N   1      35.162  12.425  16.182  0.00  0.00     0.276 A 
HETATM   30  C   UNK N   1      35.194  11.919  16.832  0.00  0.00     0.172 A 
HETATM   31 Cl   UNK N   1      35.226   8.811  16.621  0.00  0.00    -0.084 Cl
HETATM   32  N   UNK N   1      35.267   9.146  17.797  0.00  0.00    -0.359 N 
HETATM   33  N   UNK N   1      35.227  11.560  17.574  0.00  0.00    -0.373 N 
HETATM   34  N   UNK N   1      35.142  11.962  15.499  0.00  0.00    -0.201 N 
HETATM   35  O   UNK N   1      35.316  11.091  19.765  0.00  0.00    -0.394 OA
HETATM   36  O   UNK N   1      35.204  10.194  16.505  0.00  0.00    -0.271 OA
HETATM   37  O   UNK N   1      35.153  13.280  16.234  0.00  0.00    -0.268 OA
HETATM   38  O   UNK N   1      35.102  11.552  14.311  0.00  0.00    -0.199 OA
HETATM   39  O   UNK N   1      35.103  13.162  14.895  0.00  0.00    -0.199 OA
HETATM   40  O   UNK N   1      34.976  13.361  11.622  0.00  0.00    -0.356 OA
HETATM   41  O   UNK N   1      35.271  12.138  18.946  0.00  0.00    -0.355 OA
HETATM   42  O   UNK N   1      35.052  11.205  12.867  0.00  0.00    -0.354 OA
HETATM   43  S   UNK N   1      35.109  12.305  14.743  0.00  0.00     0.274 SA
HETATM   44  H   UNK N   1      35.335  11.737  20.488  0.00  0.00     0.210 HD
ENDROOT
TORSDOF 10
ENDMDL
MODEL 4
REMARK VINA RESULT:     -13.8     15.406     16.744
REMARK  10 active torsions:
REMARK  status: ('A' for Active; 'I' for Inactive)
REMARK    1  A    between atoms: C_25  and  C_21 
REMARK    2  A    between atoms: C_23  and  C_22 
REMARK    3  A    between atoms: C_30  and  C_22 
REMARK    4  A    between atoms: N_33  and  C_24 
REMARK    5  A    between atoms: O_41  and  C_25 
REMARK    6  A    between atoms: C_27  and  C_26 
REMARK    7  A    between atoms: N_32  and  C_28 
REMARK    8  A    between atoms: N_34  and  C_29 
REMARK    9  A    between atoms: C_30  and  N_33 
REMARK   10  A    between atoms: S_43  and  N_34 
ROOT
HETATM    1  C   UNK N   1      37.486   8.693  15.843  0.00  0.00     0.152 A 
HETATM    2  C   UNK N   1      36.943   8.962  17.137  0.00  0.00     0.152 A 
HETATM    3  C   UNK N   1      35.938  15.656  11.637  0.00  0.00     0.210 A 
HETATM    4  C   UNK N   1      35.361  11.262  18.980  0.00  0.00     0.210 A 
HETATM    5  C   UNK N   1      37.263  11.864  12.472  0.00  0.00     0.210 A 
HETATM    6  C   UNK N   1      35.012  13.615  17.033  0.00  0.00     0.001 A 
HETATM    7  C   UNK N   1      34.885  13.320  17.793  0.00  0.00     0.003 A 
HETATM    8  C   UNK N   1      35.395  13.151  16.469  0.00  0.00     0.013 A 
HETATM    9  C   UNK N   1      35.142  12.560  17.988  0.00  0.00     0.037 A 
HETATM   10  C   UNK N   1      37.190  10.419  14.533  0.00  0.00     0.026 A 
HETATM   11  C   UNK N   1      35.925  14.656  12.951  0.00  0.00     0.038 A 
HETATM   12  C   UNK N   1      36.935  11.179  14.337  0.00  0.00     0.033 A 
HETATM   13  C   UNK N   1      35.918  14.157  13.607  0.00  0.00     0.031 A 
HETATM   14  C   UNK N   1      36.681  10.588  15.856  0.00  0.00     0.036 A 
HETATM   15  C   UNK N   1      36.316  10.249  17.389  0.00  0.00     0.068 A 
HETATM   16  C   UNK N   1      36.601  13.651  12.193  0.00  0.00     0.075 A 
HETATM   17  C   UNK N   1      35.750  11.568  17.417  0.00  0.00     0.151 A 
HETATM   18  C   UNK N   1      37.064  10.124  15.292  0.00  0.00     0.034 A 
HETATM   19  C   UNK N   1      35.927  10.775  17.893  0.00  0.00     0.138 A 
HETATM   20  C   UNK N   1      36.266  14.404  12.244  0.00  0.00     0.070 A 
HETATM   21  C   UNK N   1      35.651  12.392  16.663  0.00  0.00     0.017 A 
HETATM   22  C   UNK N   1      36.424  11.347  15.662  0.00  0.00     0.014 A 
HETATM   23  C   UNK N   1      36.551  11.643  14.902  0.00  0.00     0.063 A 
HETATM   24  C   UNK N   1      36.403  10.618  16.656  0.00  0.00     0.176 A 
HETATM   25  C   UNK N   1      35.524  12.096  17.423  0.00  0.00     0.077 A 
HETATM   26  C   UNK N   1      36.594  13.152  12.850  0.00  0.00     0.094 A 
HETATM   27  C   UNK N   1      36.253  13.405  13.557  0.00  0.00     0.113 A 
HETATM   28  C   UNK N   1      36.859   9.975  16.101  0.00  0.00     0.241 A 
HETATM   29  C   UNK N   1      35.920  12.582  15.610  0.00  0.00     0.276 A 
HETATM   30  C   UNK N   1      36.034  11.927  16.099  0.00  0.00     0.172 A 
HETATM   31 Cl   UNK N   1      37.444   9.301  15.193  0.00  0.00    -0.084 Cl
HETATM   32  N   UNK N   1      37.098   9.202  16.362  0.00  0.00    -0.359 N 
HETATM   33  N   UNK N   1      36.068  11.370  16.707  0.00  0.00    -0.373 N 
HETATM   34  N   UNK N   1      36.240  12.406  14.870  0.00  0.00    -0.201 N 
HETATM   35  O   UNK N   1      35.908  10.238  18.635  0.00  0.00    -0.394 OA
HETATM   36  O   UNK N   1      36.852  10.539  15.401  0.00  0.00    -0.271 OA
HETATM   37  O   UNK N   1      35.534  13.306  15.854  0.00  0.00    -0.268 OA
HETATM   38  O   UNK N   1      36.620  12.444  13.672  0.00  0.00    -0.199 OA
HETATM   39  O   UNK N   1      35.810  13.647  14.583  0.00  0.00    -0.199 OA
HETATM   40  O   UNK N   1      36.273  14.903  11.587  0.00  0.00    -0.356 OA
HETATM   41  O   UNK N   1      35.582  11.418  18.114  0.00  0.00    -0.355 OA
HETATM   42  O   UNK N   1      37.017  12.620  12.251  0.00  0.00    -0.354 OA
HETATM   43  S   UNK N   1      36.215  12.954  14.246  0.00  0.00     0.274 SA
HETATM   44  H   UNK N   1      35.500  10.559  19.455  0.00  0.00     0.210 HD
ENDROOT
TORSDOF 10
ENDMDL
MODEL 5
REMARK VINA RESULT:     -13.5      8.211     11.193
REMARK  10 active torsions:
REMARK  status: ('A' for Active; 'I' for Inactive)
REMARK    1  A    between atoms: C_25  and  C_21 
REMARK    2  A    between atoms: C_23  and  C_22 
REMARK    3  A    between atoms: C_30  and  C_22 
REMARK    4  A    between atoms: N_33  and  C_24 
REMARK    5  A    between atoms: O_41  and  C_25 
REMARK    6  A    between atoms: C_27  and  C_26 
REMARK    7  A    between atoms: N_32  and  C_28 
REMARK    8  A    between atoms: N_34  and  C_29 
REMARK    9  A    between atoms: C_30  and  N_33 
REMARK   10  A    between atoms: S_43  and  N_34 
ROOT
HETATM    1  C   UNK N   1      29.579  18.901   9.575  0.00  0.00     0.152 A 
HETATM    2  C   UNK N   1      28.404  18.480   8.880  0.00  0.00     0.152 A 
HETATM    3  C   UNK N   1      35.672  14.966   5.580  0.00  0.00     0.210 A 
HETATM    4  C   UNK N   1      27.286  16.585   6.359  0.00  0.00     0.210 A 
HETATM    5  C   UNK N   1      33.763  17.376   8.296  0.00  0.00     0.210 A 
HETATM    6  C   UNK N   1      29.854  15.353   5.204  0.00  0.00     0.001 A 
HETATM    7  C   UNK N   1      29.033  15.413   5.158  0.00  0.00     0.003 A 
HETATM    8  C   UNK N   1      30.266  15.771   5.785  0.00  0.00     0.013 A 
HETATM    9  C   UNK N   1      28.623  15.891   5.692  0.00  0.00     0.037 A 
HETATM   10  C   UNK N   1      31.349  17.974   8.684  0.00  0.00     0.026 A 
HETATM   11  C   UNK N   1      34.109  15.400   5.890  0.00  0.00     0.038 A 
HETATM   12  C   UNK N   1      31.758  17.497   8.150  0.00  0.00     0.033 A 
HETATM   13  C   UNK N   1      33.329  15.617   6.044  0.00  0.00     0.031 A 
HETATM   14  C   UNK N   1      30.115  17.617   8.058  0.00  0.00     0.036 A 
HETATM   15  C   UNK N   1      28.533  17.563   7.758  0.00  0.00     0.068 A 
HETATM   16  C   UNK N   1      34.552  16.219   6.974  0.00  0.00     0.075 A 
HETATM   17  C   UNK N   1      28.888  16.667   6.696  0.00  0.00     0.151 A 
HETATM   18  C   UNK N   1      30.527  18.034   8.637  0.00  0.00     0.034 A 
HETATM   19  C   UNK N   1      28.198  17.115   7.152  0.00  0.00     0.138 A 
HETATM   20  C   UNK N   1      34.721  15.701   6.354  0.00  0.00     0.070 A 
HETATM   21  C   UNK N   1      29.857  16.248   6.318  0.00  0.00     0.017 A 
HETATM   22  C   UNK N   1      30.524  17.139   7.524  0.00  0.00     0.014 A 
HETATM   23  C   UNK N   1      31.346  17.079   7.570  0.00  0.00     0.063 A 
HETATM   24  C   UNK N   1      29.350  17.449   7.737  0.00  0.00     0.176 A 
HETATM   25  C   UNK N   1      29.036  16.308   6.272  0.00  0.00     0.077 A 
HETATM   26  C   UNK N   1      33.771  16.436   7.128  0.00  0.00     0.094 A 
HETATM   27  C   UNK N   1      33.159  16.135   6.664  0.00  0.00     0.113 A 
HETATM   28  C   UNK N   1      29.700  17.986   8.456  0.00  0.00     0.241 A 
HETATM   29  C   UNK N   1      30.932  16.314   6.558  0.00  0.00     0.276 A 
HETATM   30  C   UNK N   1      30.269  16.666   6.898  0.00  0.00     0.172 A 
HETATM   31 Cl   UNK N   1      30.384  18.609   9.331  0.00  0.00    -0.084 Cl
HETATM   32  N   UNK N   1      29.224  18.460   8.976  0.00  0.00    -0.359 N 
HETATM   33  N   UNK N   1      29.519  16.931   7.117  0.00  0.00    -0.373 N 
HETATM   34  N   UNK N   1      31.598  16.569   6.973  0.00  0.00    -0.201 N 
HETATM   35  O   UNK N   1      27.323  17.342   7.305  0.00  0.00    -0.394 OA
HETATM   36  O   UNK N   1      30.542  17.734   8.266  0.00  0.00    -0.271 OA
HETATM   37  O   UNK N   1      30.906  15.779   5.889  0.00  0.00    -0.268 OA
HETATM   38  O   UNK N   1      32.769  16.763   7.388  0.00  0.00    -0.199 OA
HETATM   39  O   UNK N   1      32.236  15.782   6.089  0.00  0.00    -0.199 OA
HETATM   40  O   UNK N   1      35.502  15.484   6.200  0.00  0.00    -0.356 OA
HETATM   41  O   UNK N   1      28.170  16.640   6.557  0.00  0.00    -0.355 OA
HETATM   42  O   UNK N   1      34.197  16.906   7.775  0.00  0.00    -0.354 OA
HETATM   43  S   UNK N   1      32.361  16.313   6.768  0.00  0.00     0.274 SA
HETATM   44  H   UNK N   1      26.621  16.974   6.744  0.00  0.00     0.210 HD
ENDROOT
TORSDOF 10
ENDMDL
MODEL 6
REMARK VINA RESULT:     -13.3     13.687     15.181
REMARK  10 active torsions:
REMARK  status: ('A' for Active; 'I' for Inactive)
REMARK    1  A    between atoms: C_25  and  C_21 
REMARK    2  A    between atoms: C_23  and  C_22 
REMARK    3  A    between atoms: C_30  and  C_22 
REMARK    4  A    between atoms: N_33  and  C_24 
REMARK    5  A    between atoms: O_41  and  C_25 
REMARK    6  A    between atoms: C_27  and  C_26 
REMARK    7  A    between atoms: N_32  and  C_28 
REMARK    8  A    between atoms: N_34  and  C_29 
REMARK    9  A    between atoms: C_30  and  N_33 
REMARK   10  A    between atoms: S_43  and  N_34 
ROOT
HETATM    1  C   UNK N   1      37.115  15.123  15.565  0.00  0.00     0.152 A 
HETATM    2  C   UNK N   1      36.596  14.175  16.498  0.00  0.00     0.152 A 
HETATM    3  C   UNK N   1      34.320  12.353   8.279  0.00  0.00     0.210 A 
HETATM    4  C   UNK N   1      34.759  11.393  16.790  0.00  0.00     0.210 A 
HETATM    5  C   UNK N   1      36.253  14.701  11.032  0.00  0.00     0.210 A 
HETATM    6  C   UNK N   1      33.963  10.761  13.889  0.00  0.00     0.001 A 
HETATM    7  C   UNK N   1      33.918  10.543  14.683  0.00  0.00     0.003 A 
HETATM    8  C   UNK N   1      34.388  11.434  13.670  0.00  0.00     0.013 A 
HETATM    9  C   UNK N   1      34.297  10.998  15.258  0.00  0.00     0.037 A 
HETATM   10  C   UNK N   1      36.498  14.590  13.535  0.00  0.00     0.026 A 
HETATM   11  C   UNK N   1      34.521  12.341   9.917  0.00  0.00     0.038 A 
HETATM   12  C   UNK N   1      36.119  14.136  12.960  0.00  0.00     0.033 A 
HETATM   13  C   UNK N   1      34.621  12.334  10.736  0.00  0.00     0.031 A 
HETATM   14  C   UNK N   1      36.028  13.701  14.549  0.00  0.00     0.036 A 
HETATM   15  C   UNK N   1      35.788  13.068  16.011  0.00  0.00     0.068 A 
HETATM   16  C   UNK N   1      35.310  13.529   9.829  0.00  0.00     0.075 A 
HETATM   17  C   UNK N   1      35.026  12.068  15.320  0.00  0.00     0.151 A 
HETATM   18  C   UNK N   1      36.452  14.372  14.329  0.00  0.00     0.034 A 
HETATM   19  C   UNK N   1      35.345  12.385  16.147  0.00  0.00     0.138 A 
HETATM   20  C   UNK N   1      34.865  12.938   9.464  0.00  0.00     0.070 A 
HETATM   21  C   UNK N   1      34.768  11.888  14.244  0.00  0.00     0.017 A 
HETATM   22  C   UNK N   1      35.648  13.246  13.974  0.00  0.00     0.014 A 
HETATM   23  C   UNK N   1      35.693  13.464  13.180  0.00  0.00     0.063 A 
HETATM   24  C   UNK N   1      35.784  13.216  15.199  0.00  0.00     0.176 A 
HETATM   25  C   UNK N   1      34.722  11.670  15.038  0.00  0.00     0.077 A 
HETATM   26  C   UNK N   1      35.410  13.522  10.649  0.00  0.00     0.094 A 
HETATM   27  C   UNK N   1      35.066  12.925  11.102  0.00  0.00     0.113 A 
HETATM   28  C   UNK N   1      36.309  14.017  15.085  0.00  0.00     0.241 A 
HETATM   29  C   UNK N   1      34.957  12.354  13.262  0.00  0.00     0.276 A 
HETATM   30  C   UNK N   1      35.193  12.560  14.025  0.00  0.00     0.172 A 
HETATM   31 Cl   UNK N   1      36.950  15.044  14.693  0.00  0.00    -0.084 Cl
HETATM   32  N   UNK N   1      36.677  14.443  15.722  0.00  0.00    -0.359 N 
HETATM   33  N   UNK N   1      35.340  12.625  14.834  0.00  0.00    -0.373 N 
HETATM   34  N   UNK N   1      35.266  12.913  12.739  0.00  0.00    -0.201 N 
HETATM   35  O   UNK N   1      35.442  12.357  17.057  0.00  0.00    -0.394 OA
HETATM   36  O   UNK N   1      36.184  14.000  14.195  0.00  0.00    -0.271 OA
HETATM   37  O   UNK N   1      34.473  11.673  13.072  0.00  0.00    -0.268 OA
HETATM   38  O   UNK N   1      35.583  13.576  11.719  0.00  0.00    -0.199 OA
HETATM   39  O   UNK N   1      34.637  12.152  11.827  0.00  0.00    -0.199 OA
HETATM   40  O   UNK N   1      34.765  12.944   8.645  0.00  0.00    -0.356 OA
HETATM   41  O   UNK N   1      34.915  11.777  15.982  0.00  0.00    -0.355 OA
HETATM   42  O   UNK N   1      35.883  14.265  10.437  0.00  0.00    -0.354 OA
HETATM   43  S   UNK N   1      35.129  12.864  11.922  0.00  0.00     0.274 SA
HETATM   44  H   UNK N   1      35.027  11.644  17.568  0.00  0.00     0.210 HD
ENDROOT
TORSDOF 10
ENDMDL
MODEL 7
REMARK VINA RESULT:     -13.3      8.470     11.015
REMARK  10 active torsions:
REMARK  status: ('A' for Active; 'I' for Inactive)
REMARK    1  A    between atoms: C_25  and  C_21 
REMARK    2  A    between atoms: C_23  and  C_22 
REMARK    3  A    between atoms: C_30  and  C_22 
REMARK    4  A    between atoms: N_33  and  C_24 
REMARK    5  A    between atoms: O_41  and  C_25 
REMARK    6  A    between atoms: C_27  and  C_26 
REMARK    7  A    between atoms: N_32  and  C_28 
REMARK    8  A    between atoms: N_34  and  C_29 
REMARK    9  A    between atoms: C_30  and  N_33 
REMARK   10  A    between atoms: S_43  and  N_34 
ROOT
HETATM    1  C   UNK N   1      29.132  16.986   4.196  0.00  0.00     0.152 A 
HETATM    2  C   UNK N   1      28.196  17.729   4.979  0.00  0.00     0.152 A 
HETATM    3  C   UNK N   1      35.340  15.562   9.487  0.00  0.00     0.210 A 
HETATM    4  C   UNK N   1      27.636  19.029   8.010  0.00  0.00     0.210 A 
HETATM    5  C   UNK N   1      33.134  15.541   6.028  0.00  0.00     0.210 A 
HETATM    6  C   UNK N   1      30.159  18.260   9.589  0.00  0.00     0.001 A 
HETATM    7  C   UNK N   1      29.426  18.639   9.595  0.00  0.00     0.003 A 
HETATM    8  C   UNK N   1      30.427  17.892   8.901  0.00  0.00     0.013 A 
HETATM    9  C   UNK N   1      28.961  18.650   8.913  0.00  0.00     0.037 A 
HETATM   10  C   UNK N   1      30.887  16.487   5.402  0.00  0.00     0.026 A 
HETATM   11  C   UNK N   1      33.876  16.156   9.009  0.00  0.00     0.038 A 
HETATM   12  C   UNK N   1      31.352  16.475   6.083  0.00  0.00     0.033 A 
HETATM   13  C   UNK N   1      33.144  16.452   8.771  0.00  0.00     0.031 A 
HETATM   14  C   UNK N   1      29.886  17.233   6.095  0.00  0.00     0.036 A 
HETATM   15  C   UNK N   1      28.512  18.030   6.366  0.00  0.00     0.068 A 
HETATM   16  C   UNK N   1      34.082  15.613   7.704  0.00  0.00     0.075 A 
HETATM   17  C   UNK N   1      29.022  18.211   7.695  0.00  0.00     0.151 A 
HETATM   18  C   UNK N   1      30.154  16.865   5.408  0.00  0.00     0.034 A 
HETATM   19  C   UNK N   1      28.317  18.372   7.091  0.00  0.00     0.138 A 
HETATM   20  C   UNK N   1      34.344  15.736   8.476  0.00  0.00     0.070 A 
HETATM   21  C   UNK N   1      29.963  17.903   8.219  0.00  0.00     0.017 A 
HETATM   22  C   UNK N   1      30.350  17.222   6.778  0.00  0.00     0.014 A 
HETATM   23  C   UNK N   1      31.083  16.843   6.772  0.00  0.00     0.063 A 
HETATM   24  C   UNK N   1      29.253  17.675   6.443  0.00  0.00     0.176 A 
HETATM   25  C   UNK N   1      29.230  18.282   8.226  0.00  0.00     0.077 A 
HETATM   26  C   UNK N   1      33.350  15.910   7.465  0.00  0.00     0.094 A 
HETATM   27  C   UNK N   1      32.881  16.329   7.999  0.00  0.00     0.113 A 
HETATM   28  C   UNK N   1      29.441  17.290   5.580  0.00  0.00     0.241 A 
HETATM   29  C   UNK N   1      30.890  17.350   7.991  0.00  0.00     0.276 A 
HETATM   30  C   UNK N   1      30.231  17.535   7.531  0.00  0.00     0.172 A 
HETATM   31 Cl   UNK N   1      29.902  16.707   4.546  0.00  0.00    -0.084 Cl
HETATM   32  N   UNK N   1      28.918  17.335   4.911  0.00  0.00    -0.359 N 
HETATM   33  N   UNK N   1      29.515  17.798   7.216  0.00  0.00    -0.373 N 
HETATM   34  N   UNK N   1      31.417  16.922   7.521  0.00  0.00    -0.201 N 
HETATM   35  O   UNK N   1      27.501  18.711   6.849  0.00  0.00    -0.394 OA
HETATM   36  O   UNK N   1      30.234  16.977   5.866  0.00  0.00    -0.271 OA
HETATM   37  O   UNK N   1      30.986  17.575   8.812  0.00  0.00    -0.268 OA
HETATM   38  O   UNK N   1      32.400  16.271   7.084  0.00  0.00    -0.199 OA
HETATM   39  O   UNK N   1      32.150  16.922   8.649  0.00  0.00    -0.199 OA
HETATM   40  O   UNK N   1      35.077  15.440   8.714  0.00  0.00    -0.356 OA
HETATM   41  O   UNK N   1      28.399  18.574   7.822  0.00  0.00    -0.355 OA
HETATM   42  O   UNK N   1      33.619  15.515   6.696  0.00  0.00    -0.354 OA
HETATM   43  S   UNK N   1      32.142  16.650   7.821  0.00  0.00     0.274 SA
HETATM   44  H   UNK N   1      26.968  19.201   7.496  0.00  0.00     0.210 HD
ENDROOT
TORSDOF 10
ENDMDL
MODEL 8
REMARK VINA RESULT:     -13.2      8.263     10.282
REMARK  10 active torsions:
REMARK  status: ('A' for Active; 'I' for Inactive)
REMARK    1  A    between atoms: C_25  and  C_21 
REMARK    2  A    between atoms: C_23  and  C_22 
REMARK    3  A    between atoms: C_30  and  C_22 
REMARK    4  A    between atoms: N_33  and  C_24 
REMARK    5  A    between atoms: O_41  and  C_25 
REMARK    6  A    between atoms: C_27  and  C_26 
REMARK    7  A    between atoms: N_32  and  C_28 
REMARK    8  A    between atoms: N_34  and  C_29 
REMARK    9  A    between atoms: C_30  and  N_33 
REMARK   10  A    between atoms: S_43  and  N_34 
ROOT
HETATM    1  C   UNK N   1      33.608  17.651   7.078  0.00  0.00     0.152 A 
HETATM    2  C   UNK N   1      32.874  18.003   8.252  0.00  0.00     0.152 A 
HETATM    3  C   UNK N   1      27.742  14.957   1.892  0.00  0.00     0.210 A 
HETATM    4  C   UNK N   1      29.809  18.126   9.589  0.00  0.00     0.210 A 
HETATM    5  C   UNK N   1      31.443  15.968   3.343  0.00  0.00     0.210 A 
HETATM    6  C   UNK N   1      28.010  17.051   7.340  0.00  0.00     0.001 A 
HETATM    7  C   UNK N   1      28.057  17.347   8.108  0.00  0.00     0.003 A 
HETATM    8  C   UNK N   1      28.696  16.966   6.889  0.00  0.00     0.013 A 
HETATM    9  C   UNK N   1      28.789  17.559   8.426  0.00  0.00     0.037 A 
HETATM   10  C   UNK N   1      32.247  16.899   5.540  0.00  0.00     0.026 A 
HETATM   11  C   UNK N   1      28.337  15.566   3.307  0.00  0.00     0.038 A 
HETATM   12  C   UNK N   1      31.515  16.688   5.222  0.00  0.00     0.033 A 
HETATM   13  C   UNK N   1      28.634  15.870   4.013  0.00  0.00     0.031 A 
HETATM   14  C   UNK N   1      31.608  17.281   6.759  0.00  0.00     0.036 A 
HETATM   15  C   UNK N   1      31.430  17.828   8.265  0.00  0.00     0.068 A 
HETATM   16  C   UNK N   1      29.659  15.527   2.767  0.00  0.00     0.075 A 
HETATM   17  C   UNK N   1      30.033  17.576   8.060  0.00  0.00     0.151 A 
HETATM   18  C   UNK N   1      32.293  17.196   6.308  0.00  0.00     0.034 A 
HETATM   19  C   UNK N   1      30.701  17.882   8.648  0.00  0.00     0.138 A 
HETATM   20  C   UNK N   1      28.849  15.394   2.684  0.00  0.00     0.070 A 
HETATM   21  C   UNK N   1      29.427  17.177   7.205  0.00  0.00     0.017 A 
HETATM   22  C   UNK N   1      30.876  17.070   6.443  0.00  0.00     0.014 A 
HETATM   23  C   UNK N   1      30.830  16.773   5.674  0.00  0.00     0.063 A 
HETATM   24  C   UNK N   1      31.298  17.525   7.508  0.00  0.00     0.176 A 
HETATM   25  C   UNK N   1      29.474  17.473   7.974  0.00  0.00     0.077 A 
HETATM   26  C   UNK N   1      29.956  15.832   3.474  0.00  0.00     0.094 A 
HETATM   27  C   UNK N   1      29.444  16.003   4.097  0.00  0.00     0.113 A 
HETATM   28  C   UNK N   1      32.168  17.479   7.098  0.00  0.00     0.241 A 
HETATM   29  C   UNK N   1      29.594  16.809   6.179  0.00  0.00     0.276 A 
HETATM   30  C   UNK N   1      30.113  17.092   6.754  0.00  0.00     0.172 A 
HETATM   31 Cl   UNK N   1      33.194  17.328   6.359  0.00  0.00    -0.084 Cl
HETATM   32  N   UNK N   1      32.891  17.713   7.479  0.00  0.00    -0.359 N 
HETATM   33  N   UNK N   1      30.488  17.393   7.425  0.00  0.00    -0.373 N 
HETATM   34  N   UNK N   1      30.038  16.612   5.511  0.00  0.00    -0.201 N 
HETATM   35  O   UNK N   1      31.008  18.221   9.442  0.00  0.00    -0.394 OA
HETATM   36  O   UNK N   1      31.818  17.148   6.338  0.00  0.00    -0.271 OA
HETATM   37  O   UNK N   1      28.747  16.742   6.282  0.00  0.00    -0.268 OA
HETATM   38  O   UNK N   1      30.415  16.229   4.374  0.00  0.00    -0.199 OA
HETATM   39  O   UNK N   1      28.830  16.277   5.023  0.00  0.00    -0.199 OA
HETATM   40  O   UNK N   1      28.552  15.090   1.976  0.00  0.00    -0.356 OA
HETATM   41  O   UNK N   1      29.947  17.824   8.744  0.00  0.00    -0.355 OA
HETATM   42  O   UNK N   1      30.725  15.749   3.002  0.00  0.00    -0.354 OA
HETATM   43  S   UNK N   1      29.678  16.308   4.826  0.00  0.00     0.274 SA
HETATM   44  H   UNK N   1      30.384  18.414  10.160  0.00  0.00     0.210 HD
ENDROOT
TORSDOF 10
ENDMDL
MODEL 9
REMARK VINA RESULT:     -13.1     16.066     16.660
REMARK  10 active torsions:
REMARK  status: ('A' for Active; 'I' for Inactive)
REMARK    1  A    between atoms: C_25  and  C_21 
REMARK    2  A    between atoms: C_23  and  C_22 
REMARK    3  A    between atoms: C_30  and  C_22 
REMARK    4  A    between atoms: N_33  and  C_24 
REMARK    5  A    between atoms: O_41  and  C_25 
REMARK    6  A    between atoms: C_27  and  C_26 
REMARK    7  A    between atoms: N_32  and  C_28 
REMARK    8  A    between atoms: N_34  and  C_29 
REMARK    9  A    between atoms: C_30  and  N_33 
REMARK   10  A    between atoms: S_43  and  N_34 
ROOT
HETATM    1  C   UNK N   1      35.147  14.002  18.677  0.00  0.00     0.152 A 
HETATM    2  C   UNK N   1      34.940  12.701  19.230  0.00  0.00     0.152 A 
HETATM    3  C   UNK N   1      37.142  12.426  10.796  0.00  0.00     0.210 A 
HETATM    4  C   UNK N   1      34.967   9.429  18.532  0.00  0.00     0.210 A 
HETATM    5  C   UNK N   1      36.340  14.523  14.230  0.00  0.00     0.210 A 
HETATM    6  C   UNK N   1      35.744   9.345  15.559  0.00  0.00     0.001 A 
HETATM    7  C   UNK N   1      35.545   8.917  16.236  0.00  0.00     0.003 A 
HETATM    8  C   UNK N   1      35.776  10.169  15.587  0.00  0.00     0.013 A 
HETATM    9  C   UNK N   1      35.379   9.314  16.941  0.00  0.00     0.037 A 
HETATM   10  C   UNK N   1      35.694  13.839  16.565  0.00  0.00     0.026 A 
HETATM   11  C   UNK N   1      36.717  12.048  12.346  0.00  0.00     0.038 A 
HETATM   12  C   UNK N   1      35.860  13.443  15.860  0.00  0.00     0.033 A 
HETATM   13  C   UNK N   1      36.505  11.859  13.120  0.00  0.00     0.031 A 
HETATM   14  C   UNK N   1      35.464  12.588  17.215  0.00  0.00     0.036 A 
HETATM   15  C   UNK N   1      35.107  11.533  18.380  0.00  0.00     0.068 A 
HETATM   16  C   UNK N   1      36.696  13.437  12.679  0.00  0.00     0.075 A 
HETATM   17  C   UNK N   1      35.324  10.534  17.374  0.00  0.00     0.151 A 
HETATM   18  C   UNK N   1      35.496  13.411  17.242  0.00  0.00     0.034 A 
HETATM   19  C   UNK N   1      35.097  10.716  18.269  0.00  0.00     0.138 A 
HETATM   20  C   UNK N   1      36.812  12.837  12.125  0.00  0.00     0.070 A 
HETATM   21  C   UNK N   1      35.610  10.565  16.290  0.00  0.00     0.017 A 
HETATM   22  C   UNK N   1      35.630  12.191  16.510  0.00  0.00     0.014 A 
HETATM   23  C   UNK N   1      35.828  12.618  15.833  0.00  0.00     0.063 A 
HETATM   24  C   UNK N   1      35.313  11.885  17.662  0.00  0.00     0.176 A 
HETATM   25  C   UNK N   1      35.411  10.137  16.967  0.00  0.00     0.077 A 
HETATM   26  C   UNK N   1      36.483  13.248  13.454  0.00  0.00     0.094 A 
HETATM   27  C   UNK N   1      36.388  12.459  13.674  0.00  0.00     0.113 A 
HETATM   28  C   UNK N   1      35.312  12.833  17.835  0.00  0.00     0.241 A 
HETATM   29  C   UNK N   1      35.848  11.321  15.523  0.00  0.00     0.276 A 
HETATM   30  C   UNK N   1      35.642  11.389  16.318  0.00  0.00     0.172 A 
HETATM   31 Cl   UNK N   1      35.377  14.104  17.822  0.00  0.00    -0.084 Cl
HETATM   32  N   UNK N   1      35.131  13.183  18.587  0.00  0.00    -0.359 N 
HETATM   33  N   UNK N   1      35.429  11.284  17.109  0.00  0.00    -0.373 N 
HETATM   34  N   UNK N   1      35.963  12.081  15.223  0.00  0.00    -0.201 N 
HETATM   35  O   UNK N   1      34.862  10.481  19.123  0.00  0.00    -0.394 OA
HETATM   36  O   UNK N   1      35.544  13.011  16.984  0.00  0.00    -0.271 OA
HETATM   37  O   UNK N   1      35.922  10.577  15.104  0.00  0.00    -0.268 OA
HETATM   38  O   UNK N   1      36.203  13.072  14.487  0.00  0.00    -0.199 OA
HETATM   39  O   UNK N   1      36.228  11.406  14.090  0.00  0.00    -0.199 OA
HETATM   40  O   UNK N   1      37.025  13.026  11.351  0.00  0.00    -0.356 OA
HETATM   41  O   UNK N   1      35.162  10.052  17.900  0.00  0.00    -0.355 OA
HETATM   42  O   UNK N   1      36.511  14.151  13.513  0.00  0.00    -0.354 OA
HETATM   43  S   UNK N   1      36.177  12.206  14.430  0.00  0.00     0.274 SA
HETATM   44  H   UNK N   1      34.755   9.546  19.358  0.00  0.00     0.210 HD
ENDROOT
TORSDOF 10
ENDMDL
