MODEL 1
REMARK VINA RESULT:      -8.0      0.000      0.000
REMARK  31 active torsions:
REMARK  status: ('A' for Active; 'I' for Inactive)
REMARK    1  A    between atoms: C_2  and  C_3 
REMARK    2  A    between atoms: C_3  and  C_4 
REMARK    3  A    between atoms: C_4  and  C_5 
REMARK    4  A    between atoms: C_5  and  C_6 
REMARK    5  A    between atoms: C_5  and  N_47 
REMARK       I    between atoms: C_6  and  N_8 
REMARK    6  A    between atoms: C_9  and  N_8 
REMARK    7  A    between atoms: C_9  and  C_10 
REMARK    8  A    between atoms: C_9  and  C_18 
REMARK    9  A    between atoms: C_10  and  C_11 
REMARK   10  A    between atoms: C_14  and  O_17 
REMARK       I    between atoms: C_18  and  N_20 
REMARK   11  A    between atoms: C_21  and  N_20 
REMARK   12  A    between atoms: C_21  and  C_22 
REMARK   13  A    between atoms: C_21  and  C_26 
REMARK   14  A    between atoms: C_22  and  C_24 
REMARK       I    between atoms: C_26  and  N_28 
REMARK   15  A    between atoms: C_29  and  N_28 
REMARK   16  A    between atoms: C_29  and  C_30 
REMARK   17  A    between atoms: C_29  and  C_37 
REMARK   18  A    between atoms: C_30  and  C_31 
REMARK       I    between atoms: C_37  and  N_39 
REMARK   19  A    between atoms: C_43  and  C_44 
REMARK   20  A    between atoms: C_44  and  O_46 
REMARK       I    between atoms: N_47  and  C_48 
REMARK   21  A    between atoms: C_48  and  C_50 
REMARK   22  A    between atoms: C_50  and  C_51 
REMARK   23  A    between atoms: C_50  and  N_59 
REMARK   24  A    between atoms: C_51  and  C_52 
REMARK   25  A    between atoms: C_52  and  C_53 
REMARK   26  A    between atoms: C_53  and  N_54 
REMARK       I    between atoms: N_54  and  C_55 
REMARK       I    between atoms: C_55  and  N_58 
REMARK       I    between atoms: N_59  and  C_60 
REMARK   27  A    between atoms: C_60  and  C_62 
REMARK   28  A    between atoms: C_62  and  C_63 
REMARK   29  A    between atoms: C_62  and  N_67 
REMARK   30  A    between atoms: C_63  and  C_64 
REMARK   31  A    between atoms: C_64  and  O_66 
ROOT
HETATM    1  C   UNK N   1      23.295  14.793   5.804  0.00  0.00     0.180 C 
ENDROOT
BRANCH   1   2
HETATM    2  N   UNK N   1      24.131  15.931   6.083  0.00  0.00    -0.346 N 
HETATM    3  C   UNK N   1      25.248  16.167   5.365  0.00  0.00     0.241 C 
HETATM    4  O   UNK N   1      25.590  15.371   4.498  0.00  0.00    -0.271 OA
HETATM    5  H   UNK N   1      23.884  16.548   6.809  0.00  0.00     0.163 HD
BRANCH   3   6
HETATM    6  C   UNK N   1      26.010  17.455   5.548  0.00  0.00     0.176 C 
BRANCH   6   7
HETATM    7  C   UNK N   1      25.594  18.416   4.427  0.00  0.00     0.035 C 
BRANCH   7   8
HETATM    8  C   UNK N   1      26.567  19.566   4.283  0.00  0.00     0.002 C 
BRANCH   8   9
HETATM    9  C   UNK N   1      26.300  20.555   5.400  0.00  0.00    -0.004 C 
HETATM   10  C   UNK N   1      27.599  20.978   6.048  0.00  0.00     0.005 C 
ENDBRANCH   8   9
ENDBRANCH   7   8
ENDBRANCH   6   7
BRANCH   6  11
HETATM   11  N   UNK N   1      27.412  17.064   5.523  0.00  0.00    -0.346 N 
HETATM   12  C   UNK N   1      28.327  17.295   6.498  0.00  0.00     0.241 C 
HETATM   13  O   UNK N   1      27.992  17.561   7.643  0.00  0.00    -0.271 OA
HETATM   14  H   UNK N   1      27.727  16.586   4.722  0.00  0.00     0.163 HD
BRANCH  12  15
HETATM   15  C   UNK N   1      29.752  17.473   6.088  0.00  0.00     0.176 C 
BRANCH  15  16
HETATM   16  C   UNK N   1      29.927  17.705   4.587  0.00  0.00     0.036 C 
BRANCH  16  17
HETATM   17  C   UNK N   1      31.224  17.144   3.998  0.00  0.00     0.023 C 
BRANCH  17  18
HETATM   18  C   UNK N   1      30.994  15.980   3.033  0.00  0.00     0.138 C 
BRANCH  18  19
HETATM   19  N   UNK N   1      29.586  15.726   2.833  0.00  0.00    -0.227 N 
HETATM   20  C   UNK N   1      29.071  14.423   2.617  0.00  0.00     0.665 C 
HETATM   21  N   UNK N   1      27.808  14.253   2.496  0.00  0.00    -0.235 N 
HETATM   22  N   UNK N   1      29.936  13.306   2.555  0.00  0.00    -0.235 N 
HETATM   23  H   UNK N   1      27.450  13.435   2.082  0.00  0.00     0.174 HD
ATOM     24  HN  UNK N   1      27.166  14.974   2.829  1.00  0.00     0.174 HD
HETATM   25  H   UNK N   1      30.805  13.281   3.017  0.00  0.00     0.174 HD
HETATM   26  H   UNK N   1      29.658  12.523   2.028  0.00  0.00     0.174 HD
HETATM   27  H   UNK N   1      28.961  16.486   2.848  0.00  0.00     0.177 HD
ENDBRANCH  18  19
ENDBRANCH  17  18
ENDBRANCH  16  17
ENDBRANCH  15  16
BRANCH  15  28
HETATM   28  N   UNK N   1      30.470  16.300   6.540  0.00  0.00    -0.346 N 
HETATM   29  C   UNK N   1      31.407  16.304   7.519  0.00  0.00     0.241 C 
HETATM   30  O   UNK N   1      31.877  15.239   7.888  0.00  0.00    -0.271 OA
HETATM   31  H   UNK N   1      30.265  15.441   6.105  0.00  0.00     0.163 HD
BRANCH  29  32
HETATM   32  C   UNK N   1      31.869  17.585   8.165  0.00  0.00     0.177 C 
BRANCH  32  33
HETATM   33  C   UNK N   1      33.301  17.462   8.704  0.00  0.00     0.144 C 
BRANCH  33  34
HETATM   34  C   UNK N   1      34.330  18.175   7.869  0.00  0.00     0.141 C 
HETATM   35  O   UNK N   1      34.425  17.945   6.675  0.00  0.00    -0.650 OA
BRANCH  34  36
HETATM   36  O   UNK N   1      35.152  19.073   8.445  0.00  0.00    -0.776 OA
HETATM   37  H   UNK N   1      36.081  19.197   8.425  0.00  0.00     0.167 HD
ENDBRANCH  34  36
ENDBRANCH  33  34
ENDBRANCH  32  33
BRANCH  32  38
HETATM   38  N   UNK N   1      30.956  17.985   9.225  0.00  0.00    -0.418 N 
HETATM   39  H   UNK N   1      30.184  17.374   9.491  0.00  0.00     0.150 HD
HETATM   40  H   UNK N   1      31.088  18.876   9.702  0.00  0.00     0.150 HD
ENDBRANCH  32  38
ENDBRANCH  29  32
ENDBRANCH  15  28
ENDBRANCH  12  15
ENDBRANCH   6  11
ENDBRANCH   3   6
ENDBRANCH   1   2
BRANCH   1  41
HETATM   41  C   UNK N   1      24.036  13.486   6.097  0.00  0.00     0.073 C 
BRANCH  41  42
HETATM   42  C   UNK N   1      24.142  13.184   7.555  0.00  0.00    -0.056 A 
HETATM   43  C   UNK N   1      25.176  13.757   8.301  0.00  0.00     0.010 A 
HETATM   44  C   UNK N   1      25.307  13.460   9.660  0.00  0.00     0.037 A 
HETATM   45  C   UNK N   1      24.404  12.592  10.278  0.00  0.00     0.065 A 
HETATM   46  C   UNK N   1      23.373  12.011   9.534  0.00  0.00     0.037 A 
HETATM   47  C   UNK N   1      23.246  12.300   8.171  0.00  0.00     0.010 A 
BRANCH  45  48
HETATM   48  O   UNK N   1      24.527  12.317  11.585  0.00  0.00    -0.361 OA
HETATM   49  H   UNK N   1      25.268  12.567  12.102  0.00  0.00     0.217 HD
ENDBRANCH  45  48
ENDBRANCH  41  42
ENDBRANCH   1  41
BRANCH   1  50
HETATM   50  C   UNK N   1      21.994  14.964   6.520  0.00  0.00     0.241 C 
HETATM   51  O   UNK N   1      21.993  15.494   7.617  0.00  0.00    -0.271 OA
HETATM   52  N   UNK N   1      20.828  14.513   6.003  0.00  0.00    -0.346 N 
HETATM   53  H   UNK N   1      20.013  14.599   6.549  0.00  0.00     0.163 HD
BRANCH  52  54
HETATM   54  C   UNK N   1      20.709  13.912   4.690  0.00  0.00     0.180 C 
BRANCH  54  55
HETATM   55  C   UNK N   1      21.194  12.463   4.629  0.00  0.00     0.013 C 
HETATM   56  C   UNK N   1      20.571  11.671   5.760  0.00  0.00     0.012 C 
BRANCH  55  57
HETATM   57  C   UNK N   1      20.902  11.812   3.278  0.00  0.00     0.002 C 
HETATM   58  C   UNK N   1      22.121  11.093   2.727  0.00  0.00     0.005 C 
ENDBRANCH  55  57
ENDBRANCH  54  55
BRANCH  54  59
HETATM   59  C   UNK N   1      19.352  14.131   4.071  0.00  0.00     0.241 C 
HETATM   60  O   UNK N   1      18.387  13.598   4.592  0.00  0.00    -0.271 OA
HETATM   61  N   UNK N   1      19.170  14.857   2.939  0.00  0.00    -0.346 N 
HETATM   62  H   UNK N   1      18.256  14.943   2.582  0.00  0.00     0.163 HD
BRANCH  61  63
HETATM   63  C   UNK N   1      20.246  15.511   2.231  0.00  0.00     0.182 C 
BRANCH  63  64
HETATM   64  C   UNK N   1      20.862  14.702   1.085  0.00  0.00     0.093 C 
BRANCH  64  65
HETATM   65  C   UNK N   1      22.332  14.438   1.183  0.00  0.00     0.028 A 
HETATM   66  C   UNK N   1      23.143  14.883   2.197  0.00  0.00     0.114 A 
HETATM   67  N   UNK N   1      24.386  14.427   1.958  0.00  0.00    -0.360 N 
HETATM   68  C   UNK N   1      24.307  13.714   0.815  0.00  0.00     0.180 A 
HETATM   69  H   UNK N   1      25.191  14.584   2.505  0.00  0.00     0.166 HD
HETATM   70  N   UNK N   1      23.053  13.703   0.321  0.00  0.00    -0.354 N 
ATOM     71  HN  UNK N   1      22.724  13.237  -0.524  1.00  0.00     0.166 HD
ENDBRANCH  64  65
ENDBRANCH  63  64
BRANCH  63  72
HETATM   72  C   UNK N   1      20.026  16.972   1.944  0.00  0.00     0.243 C 
HETATM   73  O   UNK N   1      19.458  17.265   0.903  0.00  0.00    -0.271 OA
HETATM   74  N   UNK N   1      20.437  17.962   2.796  0.00  0.00    -0.336 N 
HETATM   75  C   UNK N   1      21.080  17.704   4.052  0.00  0.00     0.127 C 
HETATM   76  C   UNK N   1      20.217  19.357   2.512  0.00  0.00     0.185 C 
HETATM   77  C   UNK N   1      21.339  19.064   4.666  0.00  0.00     0.022 C 
HETATM   78  C   UNK N   1      20.657  20.091   3.767  0.00  0.00     0.038 C 
BRANCH  76  79
HETATM   79  C   UNK N   1      21.021  19.834   1.327  0.00  0.00     0.163 C 
HETATM   80  O   UNK N   1      22.091  20.390   1.509  0.00  0.00    -0.648 OA
BRANCH  79  81
HETATM   81  O   UNK N   1      20.572  19.657   0.069  0.00  0.00    -0.775 OA
HETATM   82  H   UNK N   1      19.962  20.231  -0.351  0.00  0.00     0.167 HD
ENDBRANCH  79  81
ENDBRANCH  76  79
ENDBRANCH  63  72
ENDBRANCH  61  63
ENDBRANCH  54  59
ENDBRANCH  52  54
ENDBRANCH   1  50
TORSDOF 31
ENDMDL
MODEL 2
REMARK VINA RESULT:      -7.6      2.491      4.900
REMARK  31 active torsions:
REMARK  status: ('A' for Active; 'I' for Inactive)
REMARK    1  A    between atoms: C_2  and  C_3 
REMARK    2  A    between atoms: C_3  and  C_4 
REMARK    3  A    between atoms: C_4  and  C_5 
REMARK    4  A    between atoms: C_5  and  C_6 
REMARK    5  A    between atoms: C_5  and  N_47 
REMARK       I    between atoms: C_6  and  N_8 
REMARK    6  A    between atoms: C_9  and  N_8 
REMARK    7  A    between atoms: C_9  and  C_10 
REMARK    8  A    between atoms: C_9  and  C_18 
REMARK    9  A    between atoms: C_10  and  C_11 
REMARK   10  A    between atoms: C_14  and  O_17 
REMARK       I    between atoms: C_18  and  N_20 
REMARK   11  A    between atoms: C_21  and  N_20 
REMARK   12  A    between atoms: C_21  and  C_22 
REMARK   13  A    between atoms: C_21  and  C_26 
REMARK   14  A    between atoms: C_22  and  C_24 
REMARK       I    between atoms: C_26  and  N_28 
REMARK   15  A    between atoms: C_29  and  N_28 
REMARK   16  A    between atoms: C_29  and  C_30 
REMARK   17  A    between atoms: C_29  and  C_37 
REMARK   18  A    between atoms: C_30  and  C_31 
REMARK       I    between atoms: C_37  and  N_39 
REMARK   19  A    between atoms: C_43  and  C_44 
REMARK   20  A    between atoms: C_44  and  O_46 
REMARK       I    between atoms: N_47  and  C_48 
REMARK   21  A    between atoms: C_48  and  C_50 
REMARK   22  A    between atoms: C_50  and  C_51 
REMARK   23  A    between atoms: C_50  and  N_59 
REMARK   24  A    between atoms: C_51  and  C_52 
REMARK   25  A    between atoms: C_52  and  C_53 
REMARK   26  A    between atoms: C_53  and  N_54 
REMARK       I    between atoms: N_54  and  C_55 
REMARK       I    between atoms: C_55  and  N_58 
REMARK       I    between atoms: N_59  and  C_60 
REMARK   27  A    between atoms: C_60  and  C_62 
REMARK   28  A    between atoms: C_62  and  C_63 
REMARK   29  A    between atoms: C_62  and  N_67 
REMARK   30  A    between atoms: C_63  and  C_64 
REMARK   31  A    between atoms: C_64  and  O_66 
ROOT
HETATM    1  C   UNK N   1      23.339  15.959   5.181  0.00  0.00     0.180 C 
ENDROOT
BRANCH   1   2
HETATM    2  N   UNK N   1      24.306  17.021   5.285  0.00  0.00    -0.346 N 
HETATM    3  C   UNK N   1      25.622  16.754   5.411  0.00  0.00     0.241 C 
HETATM    4  O   UNK N   1      25.998  15.591   5.495  0.00  0.00    -0.271 OA
HETATM    5  H   UNK N   1      24.003  17.957   5.264  0.00  0.00     0.163 HD
BRANCH   3   6
HETATM    6  C   UNK N   1      26.633  17.870   5.336  0.00  0.00     0.176 C 
BRANCH   6   7
HETATM    7  C   UNK N   1      26.415  18.619   4.015  0.00  0.00     0.035 C 
BRANCH   7   8
HETATM    8  C   UNK N   1      26.891  20.054   4.098  0.00  0.00     0.002 C 
BRANCH   8   9
HETATM    9  C   UNK N   1      26.335  20.664   5.368  0.00  0.00    -0.004 C 
HETATM   10  C   UNK N   1      27.430  21.376   6.130  0.00  0.00     0.005 C 
ENDBRANCH   8   9
ENDBRANCH   7   8
ENDBRANCH   6   7
BRANCH   6  11
HETATM   11  N   UNK N   1      27.925  17.209   5.452  0.00  0.00    -0.346 N 
HETATM   12  C   UNK N   1      28.929  17.554   6.297  0.00  0.00     0.241 C 
HETATM   13  O   UNK N   1      28.728  18.247   7.283  0.00  0.00    -0.271 OA
HETATM   14  H   UNK N   1      28.086  16.439   4.861  0.00  0.00     0.163 HD
BRANCH  12  15
HETATM   15  C   UNK N   1      30.331  17.283   5.859  0.00  0.00     0.176 C 
BRANCH  15  16
HETATM   16  C   UNK N   1      30.462  17.043   4.355  0.00  0.00     0.036 C 
BRANCH  16  17
HETATM   17  C   UNK N   1      31.665  17.723   3.698  0.00  0.00     0.023 C 
BRANCH  17  18
HETATM   18  C   UNK N   1      32.738  16.736   3.236  0.00  0.00     0.138 C 
BRANCH  18  19
HETATM   19  N   UNK N   1      32.521  15.418   3.788  0.00  0.00    -0.227 N 
HETATM   20  C   UNK N   1      33.379  14.850   4.763  0.00  0.00     0.665 C 
HETATM   21  N   UNK N   1      33.108  13.699   5.251  0.00  0.00    -0.235 N 
HETATM   22  N   UNK N   1      34.520  15.552   5.216  0.00  0.00    -0.235 N 
HETATM   23  H   UNK N   1      33.803  13.172   5.707  0.00  0.00     0.174 HD
ATOM     24  HN  UNK N   1      32.162  13.323   5.167  1.00  0.00     0.174 HD
HETATM   25  H   UNK N   1      34.576  16.535   5.211  0.00  0.00     0.174 HD
HETATM   26  H   UNK N   1      35.290  15.037   5.548  0.00  0.00     0.174 HD
HETATM   27  H   UNK N   1      31.747  14.896   3.475  0.00  0.00     0.177 HD
ENDBRANCH  18  19
ENDBRANCH  17  18
ENDBRANCH  16  17
ENDBRANCH  15  16
BRANCH  15  28
HETATM   28  N   UNK N   1      30.803  16.152   6.629  0.00  0.00    -0.346 N 
HETATM   29  C   UNK N   1      31.537  16.249   7.764  0.00  0.00     0.241 C 
HETATM   30  O   UNK N   1      31.796  15.231   8.386  0.00  0.00    -0.271 OA
HETATM   31  H   UNK N   1      30.576  15.251   6.306  0.00  0.00     0.163 HD
BRANCH  29  32
HETATM   32  C   UNK N   1      32.028  17.579   8.277  0.00  0.00     0.177 C 
BRANCH  32  33
HETATM   33  C   UNK N   1      33.472  17.489   8.788  0.00  0.00     0.144 C 
BRANCH  33  34
HETATM   34  C   UNK N   1      34.464  18.250   7.951  0.00  0.00     0.141 C 
HETATM   35  O   UNK N   1      34.526  18.068   6.746  0.00  0.00    -0.650 OA
BRANCH  34  36
HETATM   36  O   UNK N   1      35.290  19.139   8.536  0.00  0.00    -0.776 OA
HETATM   37  H   UNK N   1      36.139  19.467   8.314  0.00  0.00     0.167 HD
ENDBRANCH  34  36
ENDBRANCH  33  34
ENDBRANCH  32  33
BRANCH  32  38
HETATM   38  N   UNK N   1      31.147  18.087   9.317  0.00  0.00    -0.418 N 
HETATM   39  H   UNK N   1      30.424  17.485   9.711  0.00  0.00     0.150 HD
HETATM   40  H   UNK N   1      31.251  19.044   9.652  0.00  0.00     0.150 HD
ENDBRANCH  32  38
ENDBRANCH  29  32
ENDBRANCH  15  28
ENDBRANCH  12  15
ENDBRANCH   6  11
ENDBRANCH   3   6
ENDBRANCH   1   2
BRANCH   1  41
HETATM   41  C   UNK N   1      22.243  16.114   6.239  0.00  0.00     0.073 C 
BRANCH  41  42
HETATM   42  C   UNK N   1      22.359  15.129   7.354  0.00  0.00    -0.056 A 
HETATM   43  C   UNK N   1      21.354  15.067   8.322  0.00  0.00     0.010 A 
HETATM   44  C   UNK N   1      21.463  14.172   9.390  0.00  0.00     0.037 A 
HETATM   45  C   UNK N   1      22.576  13.334   9.490  0.00  0.00     0.065 A 
HETATM   46  C   UNK N   1      23.589  13.399   8.527  0.00  0.00     0.037 A 
HETATM   47  C   UNK N   1      23.484  14.300   7.463  0.00  0.00     0.010 A 
BRANCH  45  48
HETATM   48  O   UNK N   1      22.674  12.469  10.511  0.00  0.00    -0.361 OA
HETATM   49  H   UNK N   1      22.316  12.627  11.363  0.00  0.00     0.217 HD
ENDBRANCH  45  48
ENDBRANCH  41  42
ENDBRANCH   1  41
BRANCH   1  50
HETATM   50  C   UNK N   1      22.857  15.884   3.768  0.00  0.00     0.241 C 
HETATM   51  O   UNK N   1      22.831  16.905   3.102  0.00  0.00    -0.271 OA
HETATM   52  N   UNK N   1      22.413  14.728   3.224  0.00  0.00    -0.346 N 
HETATM   53  H   UNK N   1      22.050  14.755   2.309  0.00  0.00     0.163 HD
BRANCH  52  54
HETATM   54  C   UNK N   1      22.445  13.452   3.910  0.00  0.00     0.180 C 
BRANCH  54  55
HETATM   55  C   UNK N   1      21.151  13.123   4.657  0.00  0.00     0.013 C 
HETATM   56  C   UNK N   1      19.960  13.487   3.795  0.00  0.00     0.012 C 
BRANCH  55  57
HETATM   57  C   UNK N   1      21.090  11.658   5.088  0.00  0.00     0.002 C 
HETATM   58  C   UNK N   1      21.086  11.519   6.599  0.00  0.00     0.005 C 
ENDBRANCH  55  57
ENDBRANCH  54  55
BRANCH  54  59
HETATM   59  C   UNK N   1      22.948  12.334   3.034  0.00  0.00     0.241 C 
HETATM   60  O   UNK N   1      22.263  11.988   2.085  0.00  0.00    -0.271 OA
HETATM   61  N   UNK N   1      24.106  11.670   3.284  0.00  0.00    -0.346 N 
HETATM   62  H   UNK N   1      24.363  10.937   2.678  0.00  0.00     0.163 HD
BRANCH  61  63
HETATM   63  C   UNK N   1      24.979  11.981   4.391  0.00  0.00     0.182 C 
BRANCH  63  64
HETATM   64  C   UNK N   1      24.722  11.184   5.673  0.00  0.00     0.093 C 
BRANCH  64  65
HETATM   65  C   UNK N   1      24.657   9.696   5.520  0.00  0.00     0.028 A 
HETATM   66  C   UNK N   1      23.532   8.936   5.725  0.00  0.00     0.114 A 
HETATM   67  N   UNK N   1      23.851   7.654   5.467  0.00  0.00    -0.360 N 
HETATM   68  C   UNK N   1      25.152   7.661   5.108  0.00  0.00     0.180 A 
HETATM   69  H   UNK N   1      23.257   6.871   5.530  0.00  0.00     0.166 HD
HETATM   70  N   UNK N   1      25.668   8.905   5.129  0.00  0.00    -0.354 N 
ATOM     71  HN  UNK N   1      26.621   9.185   4.898  1.00  0.00     0.166 HD
ENDBRANCH  64  65
ENDBRANCH  63  64
BRANCH  63  72
HETATM   72  C   UNK N   1      26.427  12.170   4.028  0.00  0.00     0.243 C 
HETATM   73  O   UNK N   1      27.225  11.340   4.439  0.00  0.00    -0.271 OA
HETATM   74  N   UNK N   1      26.869  13.220   3.270  0.00  0.00    -0.336 N 
HETATM   75  C   UNK N   1      25.996  14.217   2.721  0.00  0.00     0.127 C 
HETATM   76  C   UNK N   1      28.258  13.387   2.926  0.00  0.00     0.185 C 
HETATM   77  C   UNK N   1      26.891  15.164   1.947  0.00  0.00     0.022 C 
HETATM   78  C   UNK N   1      28.288  14.551   1.950  0.00  0.00     0.038 C 
BRANCH  76  79
HETATM   79  C   UNK N   1      29.113  13.700   4.129  0.00  0.00     0.163 C 
HETATM   80  O   UNK N   1      30.306  13.449   4.102  0.00  0.00    -0.648 OA
BRANCH  79  81
HETATM   81  O   UNK N   1      28.577  14.252   5.235  0.00  0.00    -0.775 OA
HETATM   82  H   UNK N   1      28.818  14.009   6.107  0.00  0.00     0.167 HD
ENDBRANCH  79  81
ENDBRANCH  76  79
ENDBRANCH  63  72
ENDBRANCH  61  63
ENDBRANCH  54  59
ENDBRANCH  52  54
ENDBRANCH   1  50
TORSDOF 31
ENDMDL
MODEL 3
REMARK VINA RESULT:      -7.5      2.333      5.761
REMARK  31 active torsions:
REMARK  status: ('A' for Active; 'I' for Inactive)
REMARK    1  A    between atoms: C_2  and  C_3 
REMARK    2  A    between atoms: C_3  and  C_4 
REMARK    3  A    between atoms: C_4  and  C_5 
REMARK    4  A    between atoms: C_5  and  C_6 
REMARK    5  A    between atoms: C_5  and  N_47 
REMARK       I    between atoms: C_6  and  N_8 
REMARK    6  A    between atoms: C_9  and  N_8 
REMARK    7  A    between atoms: C_9  and  C_10 
REMARK    8  A    between atoms: C_9  and  C_18 
REMARK    9  A    between atoms: C_10  and  C_11 
REMARK   10  A    between atoms: C_14  and  O_17 
REMARK       I    between atoms: C_18  and  N_20 
REMARK   11  A    between atoms: C_21  and  N_20 
REMARK   12  A    between atoms: C_21  and  C_22 
REMARK   13  A    between atoms: C_21  and  C_26 
REMARK   14  A    between atoms: C_22  and  C_24 
REMARK       I    between atoms: C_26  and  N_28 
REMARK   15  A    between atoms: C_29  and  N_28 
REMARK   16  A    between atoms: C_29  and  C_30 
REMARK   17  A    between atoms: C_29  and  C_37 
REMARK   18  A    between atoms: C_30  and  C_31 
REMARK       I    between atoms: C_37  and  N_39 
REMARK   19  A    between atoms: C_43  and  C_44 
REMARK   20  A    between atoms: C_44  and  O_46 
REMARK       I    between atoms: N_47  and  C_48 
REMARK   21  A    between atoms: C_48  and  C_50 
REMARK   22  A    between atoms: C_50  and  C_51 
REMARK   23  A    between atoms: C_50  and  N_59 
REMARK   24  A    between atoms: C_51  and  C_52 
REMARK   25  A    between atoms: C_52  and  C_53 
REMARK   26  A    between atoms: C_53  and  N_54 
REMARK       I    between atoms: N_54  and  C_55 
REMARK       I    between atoms: C_55  and  N_58 
REMARK       I    between atoms: N_59  and  C_60 
REMARK   27  A    between atoms: C_60  and  C_62 
REMARK   28  A    between atoms: C_62  and  C_63 
REMARK   29  A    between atoms: C_62  and  N_67 
REMARK   30  A    between atoms: C_63  and  C_64 
REMARK   31  A    between atoms: C_64  and  O_66 
ROOT
HETATM    1  C   UNK N   1      24.518  16.232   5.152  0.00  0.00     0.180 C 
ENDROOT
BRANCH   1   2
HETATM    2  N   UNK N   1      25.480  17.124   5.746  0.00  0.00    -0.346 N 
HETATM    3  C   UNK N   1      26.679  16.674   6.168  0.00  0.00     0.241 C 
HETATM    4  O   UNK N   1      26.935  15.478   6.099  0.00  0.00    -0.271 OA
HETATM    5  H   UNK N   1      25.259  18.078   5.845  0.00  0.00     0.163 HD
BRANCH   3   6
HETATM    6  C   UNK N   1      27.739  17.648   6.617  0.00  0.00     0.176 C 
BRANCH   6   7
HETATM    7  C   UNK N   1      27.695  18.862   5.681  0.00  0.00     0.035 C 
BRANCH   7   8
HETATM    8  C   UNK N   1      27.427  20.146   6.437  0.00  0.00     0.002 C 
BRANCH   8   9
HETATM    9  C   UNK N   1      26.424  20.961   5.647  0.00  0.00    -0.004 C 
HETATM   10  C   UNK N   1      26.252  20.381   4.261  0.00  0.00     0.005 C 
ENDBRANCH   8   9
ENDBRANCH   7   8
ENDBRANCH   6   7
BRANCH   6  11
HETATM   11  N   UNK N   1      28.982  16.891   6.571  0.00  0.00    -0.346 N 
HETATM   12  C   UNK N   1      30.098  17.137   7.302  0.00  0.00     0.241 C 
HETATM   13  O   UNK N   1      30.063  17.814   8.319  0.00  0.00    -0.271 OA
HETATM   14  H   UNK N   1      29.017  16.128   5.950  0.00  0.00     0.163 HD
BRANCH  12  15
HETATM   15  C   UNK N   1      31.417  16.777   6.701  0.00  0.00     0.176 C 
BRANCH  15  16
HETATM   16  C   UNK N   1      31.517  17.110   5.213  0.00  0.00     0.036 C 
BRANCH  16  17
HETATM   17  C   UNK N   1      32.431  16.184   4.407  0.00  0.00     0.023 C 
BRANCH  17  18
HETATM   18  C   UNK N   1      31.663  15.196   3.527  0.00  0.00     0.138 C 
BRANCH  18  19
HETATM   19  N   UNK N   1      30.390  15.736   3.109  0.00  0.00    -0.227 N 
HETATM   20  C   UNK N   1      29.154  15.157   3.493  0.00  0.00     0.665 C 
HETATM   21  N   UNK N   1      28.058  15.708   3.132  0.00  0.00    -0.235 N 
HETATM   22  N   UNK N   1      29.122  13.988   4.289  0.00  0.00    -0.235 N 
HETATM   23  H   UNK N   1      27.214  15.201   3.144  0.00  0.00     0.174 HD
ATOM     24  HN  UNK N   1      28.057  16.683   2.829  1.00  0.00     0.174 HD
HETATM   25  H   UNK N   1      29.844  13.750   4.914  0.00  0.00     0.174 HD
HETATM   26  H   UNK N   1      28.346  13.388   4.213  0.00  0.00     0.174 HD
HETATM   27  H   UNK N   1      30.380  16.536   2.535  0.00  0.00     0.177 HD
ENDBRANCH  18  19
ENDBRANCH  17  18
ENDBRANCH  16  17
ENDBRANCH  15  16
BRANCH  15  28
HETATM   28  N   UNK N   1      31.626  15.367   6.953  0.00  0.00    -0.346 N 
HETATM   29  C   UNK N   1      32.324  14.871   8.004  0.00  0.00     0.241 C 
HETATM   30  O   UNK N   1      32.352  13.662   8.173  0.00  0.00    -0.271 OA
HETATM   31  H   UNK N   1      31.235  14.725   6.318  0.00  0.00     0.163 HD
BRANCH  29  32
HETATM   32  C   UNK N   1      33.052  15.773   8.967  0.00  0.00     0.177 C 
BRANCH  32  33
HETATM   33  C   UNK N   1      34.481  16.070   8.492  0.00  0.00     0.144 C 
BRANCH  33  34
HETATM   34  C   UNK N   1      34.736  17.523   8.197  0.00  0.00     0.141 C 
HETATM   35  O   UNK N   1      34.546  17.970   7.078  0.00  0.00    -0.650 OA
BRANCH  34  36
HETATM   36  O   UNK N   1      35.178  18.337   9.176  0.00  0.00    -0.776 OA
HETATM   37  H   UNK N   1      34.750  18.941   9.749  0.00  0.00     0.167 HD
ENDBRANCH  34  36
ENDBRANCH  33  34
ENDBRANCH  32  33
BRANCH  32  38
HETATM   38  N   UNK N   1      33.065  15.197  10.302  0.00  0.00    -0.418 N 
HETATM   39  H   UNK N   1      32.951  15.799  11.119  0.00  0.00     0.150 HD
HETATM   40  H   UNK N   1      33.187  14.192  10.423  0.00  0.00     0.150 HD
ENDBRANCH  32  38
ENDBRANCH  29  32
ENDBRANCH  15  28
ENDBRANCH  12  15
ENDBRANCH   6  11
ENDBRANCH   3   6
ENDBRANCH   1   2
BRANCH   1  41
HETATM   41  C   UNK N   1      23.094  16.607   5.571  0.00  0.00     0.073 C 
BRANCH  41  42
HETATM   42  C   UNK N   1      22.340  17.332   4.507  0.00  0.00    -0.056 A 
HETATM   43  C   UNK N   1      22.505  18.712   4.367  0.00  0.00     0.010 A 
HETATM   44  C   UNK N   1      21.783  19.410   3.395  0.00  0.00     0.037 A 
HETATM   45  C   UNK N   1      20.894  18.729   2.560  0.00  0.00     0.065 A 
HETATM   46  C   UNK N   1      20.719  17.349   2.702  0.00  0.00     0.037 A 
HETATM   47  C   UNK N   1      21.436  16.651   3.679  0.00  0.00     0.010 A 
BRANCH  45  48
HETATM   48  O   UNK N   1      20.209  19.400   1.622  0.00  0.00    -0.361 OA
HETATM   49  H   UNK N   1      19.532  20.020   1.815  0.00  0.00     0.217 HD
ENDBRANCH  45  48
ENDBRANCH  41  42
ENDBRANCH   1  41
BRANCH   1  50
HETATM   50  C   UNK N   1      24.757  16.178   3.678  0.00  0.00     0.241 C 
HETATM   51  O   UNK N   1      25.179  17.173   3.115  0.00  0.00    -0.271 OA
HETATM   52  N   UNK N   1      24.481  15.073   2.949  0.00  0.00    -0.346 N 
HETATM   53  H   UNK N   1      24.601  15.119   1.972  0.00  0.00     0.163 HD
BRANCH  52  54
HETATM   54  C   UNK N   1      24.022  13.824   3.522  0.00  0.00     0.180 C 
BRANCH  54  55
HETATM   55  C   UNK N   1      23.111  13.018   2.594  0.00  0.00     0.013 C 
HETATM   56  C   UNK N   1      21.699  13.020   3.143  0.00  0.00     0.012 C 
BRANCH  55  57
HETATM   57  C   UNK N   1      23.142  13.539   1.158  0.00  0.00     0.002 C 
HETATM   58  C   UNK N   1      21.799  14.109   0.740  0.00  0.00     0.005 C 
ENDBRANCH  55  57
ENDBRANCH  54  55
BRANCH  54  59
HETATM   59  C   UNK N   1      25.140  13.019   4.133  0.00  0.00     0.241 C 
HETATM   60  O   UNK N   1      26.242  13.070   3.612  0.00  0.00    -0.271 OA
HETATM   61  N   UNK N   1      24.959  12.211   5.209  0.00  0.00    -0.346 N 
HETATM   62  H   UNK N   1      25.733  11.701   5.544  0.00  0.00     0.163 HD
BRANCH  61  63
HETATM   63  C   UNK N   1      23.694  12.060   5.888  0.00  0.00     0.182 C 
BRANCH  63  64
HETATM   64  C   UNK N   1      23.045  10.678   5.762  0.00  0.00     0.093 C 
BRANCH  64  65
HETATM   65  C   UNK N   1      23.936   9.505   6.032  0.00  0.00     0.028 A 
HETATM   66  C   UNK N   1      24.124   8.932   7.265  0.00  0.00     0.114 A 
HETATM   67  N   UNK N   1      24.965   7.893   7.109  0.00  0.00    -0.360 N 
HETATM   68  C   UNK N   1      25.264   7.851   5.793  0.00  0.00     0.180 A 
HETATM   69  H   UNK N   1      25.296   7.287   7.812  0.00  0.00     0.166 HD
HETATM   70  N   UNK N   1      24.640   8.830   5.110  0.00  0.00    -0.354 N 
ATOM     71  HN  UNK N   1      24.692   9.018   4.109  1.00  0.00     0.166 HD
ENDBRANCH  64  65
ENDBRANCH  63  64
BRANCH  63  72
HETATM   72  C   UNK N   1      23.624  12.683   7.255  0.00  0.00     0.243 C 
HETATM   73  O   UNK N   1      24.582  12.528   7.997  0.00  0.00    -0.271 OA
HETATM   74  N   UNK N   1      22.542  13.404   7.685  0.00  0.00    -0.336 N 
HETATM   75  C   UNK N   1      21.393  13.662   6.867  0.00  0.00     0.127 C 
HETATM   76  C   UNK N   1      22.489  13.999   8.996  0.00  0.00     0.185 C 
HETATM   77  C   UNK N   1      20.461  14.498   7.721  0.00  0.00     0.022 C 
HETATM   78  C   UNK N   1      21.221  14.837   9.000  0.00  0.00     0.038 C 
BRANCH  76  79
HETATM   79  C   UNK N   1      22.428  12.966  10.093  0.00  0.00     0.163 C 
HETATM   80  O   UNK N   1      21.397  12.340  10.275  0.00  0.00    -0.648 OA
BRANCH  79  81
HETATM   81  O   UNK N   1      23.497  12.724  10.877  0.00  0.00    -0.775 OA
HETATM   82  H   UNK N   1      23.436  12.395  11.752  0.00  0.00     0.167 HD
ENDBRANCH  79  81
ENDBRANCH  76  79
ENDBRANCH  63  72
ENDBRANCH  61  63
ENDBRANCH  54  59
ENDBRANCH  52  54
ENDBRANCH   1  50
TORSDOF 31
ENDMDL
MODEL 4
REMARK VINA RESULT:      -7.4      2.388      5.606
REMARK  31 active torsions:
REMARK  status: ('A' for Active; 'I' for Inactive)
REMARK    1  A    between atoms: C_2  and  C_3 
REMARK    2  A    between atoms: C_3  and  C_4 
REMARK    3  A    between atoms: C_4  and  C_5 
REMARK    4  A    between atoms: C_5  and  C_6 
REMARK    5  A    between atoms: C_5  and  N_47 
REMARK       I    between atoms: C_6  and  N_8 
REMARK    6  A    between atoms: C_9  and  N_8 
REMARK    7  A    between atoms: C_9  and  C_10 
REMARK    8  A    between atoms: C_9  and  C_18 
REMARK    9  A    between atoms: C_10  and  C_11 
REMARK   10  A    between atoms: C_14  and  O_17 
REMARK       I    between atoms: C_18  and  N_20 
REMARK   11  A    between atoms: C_21  and  N_20 
REMARK   12  A    between atoms: C_21  and  C_22 
REMARK   13  A    between atoms: C_21  and  C_26 
REMARK   14  A    between atoms: C_22  and  C_24 
REMARK       I    between atoms: C_26  and  N_28 
REMARK   15  A    between atoms: C_29  and  N_28 
REMARK   16  A    between atoms: C_29  and  C_30 
REMARK   17  A    between atoms: C_29  and  C_37 
REMARK   18  A    between atoms: C_30  and  C_31 
REMARK       I    between atoms: C_37  and  N_39 
REMARK   19  A    between atoms: C_43  and  C_44 
REMARK   20  A    between atoms: C_44  and  O_46 
REMARK       I    between atoms: N_47  and  C_48 
REMARK   21  A    between atoms: C_48  and  C_50 
REMARK   22  A    between atoms: C_50  and  C_51 
REMARK   23  A    between atoms: C_50  and  N_59 
REMARK   24  A    between atoms: C_51  and  C_52 
REMARK   25  A    between atoms: C_52  and  C_53 
REMARK   26  A    between atoms: C_53  and  N_54 
REMARK       I    between atoms: N_54  and  C_55 
REMARK       I    between atoms: C_55  and  N_58 
REMARK       I    between atoms: N_59  and  C_60 
REMARK   27  A    between atoms: C_60  and  C_62 
REMARK   28  A    between atoms: C_62  and  C_63 
REMARK   29  A    between atoms: C_62  and  N_67 
REMARK   30  A    between atoms: C_63  and  C_64 
REMARK   31  A    between atoms: C_64  and  O_66 
ROOT
HETATM    1  C   UNK N   1      25.156  14.519   2.719  0.00  0.00     0.180 C 
ENDROOT
BRANCH   1   2
HETATM    2  N   UNK N   1      25.940  15.698   2.986  0.00  0.00    -0.346 N 
HETATM    3  C   UNK N   1      25.738  16.431   4.099  0.00  0.00     0.241 C 
HETATM    4  O   UNK N   1      24.836  16.125   4.870  0.00  0.00    -0.271 OA
HETATM    5  H   UNK N   1      26.635  15.972   2.345  0.00  0.00     0.163 HD
BRANCH   3   6
HETATM    6  C   UNK N   1      26.683  17.550   4.452  0.00  0.00     0.176 C 
BRANCH   6   7
HETATM    7  C   UNK N   1      26.622  18.595   3.330  0.00  0.00     0.035 C 
BRANCH   7   8
HETATM    8  C   UNK N   1      26.668  20.007   3.874  0.00  0.00     0.002 C 
BRANCH   8   9
HETATM    9  C   UNK N   1      25.258  20.419   4.243  0.00  0.00    -0.004 C 
HETATM   10  C   UNK N   1      24.379  20.442   3.013  0.00  0.00     0.005 C 
ENDBRANCH   8   9
ENDBRANCH   7   8
ENDBRANCH   6   7
BRANCH   6  11
HETATM   11  N   UNK N   1      27.979  16.906   4.610  0.00  0.00    -0.346 N 
HETATM   12  C   UNK N   1      28.819  17.042   5.667  0.00  0.00     0.241 C 
HETATM   13  O   UNK N   1      28.428  17.456   6.748  0.00  0.00    -0.271 OA
HETATM   14  H   UNK N   1      28.275  16.315   3.880  0.00  0.00     0.163 HD
BRANCH  12  15
HETATM   15  C   UNK N   1      30.285  16.918   5.412  0.00  0.00     0.176 C 
BRANCH  15  16
HETATM   16  C   UNK N   1      30.627  16.672   3.942  0.00  0.00     0.036 C 
BRANCH  16  17
HETATM   17  C   UNK N   1      32.016  17.153   3.516  0.00  0.00     0.023 C 
BRANCH  17  18
HETATM   18  C   UNK N   1      33.040  16.022   3.411  0.00  0.00     0.138 C 
BRANCH  18  19
HETATM   19  N   UNK N   1      33.908  15.982   4.565  0.00  0.00    -0.227 N 
HETATM   20  C   UNK N   1      34.054  14.823   5.368  0.00  0.00     0.665 C 
HETATM   21  N   UNK N   1      34.875  14.833   6.349  0.00  0.00    -0.235 N 
HETATM   22  N   UNK N   1      33.318  13.650   5.082  0.00  0.00    -0.235 N 
HETATM   23  H   UNK N   1      34.802  14.166   7.071  0.00  0.00     0.174 HD
ATOM     24  HN  UNK N   1      35.613  15.538   6.386  1.00  0.00     0.174 HD
HETATM   25  H   UNK N   1      33.004  13.427   4.177  0.00  0.00     0.174 HD
HETATM   26  H   UNK N   1      33.110  13.033   5.820  0.00  0.00     0.174 HD
HETATM   27  H   UNK N   1      34.416  16.791   4.803  0.00  0.00     0.177 HD
ENDBRANCH  18  19
ENDBRANCH  17  18
ENDBRANCH  16  17
ENDBRANCH  15  16
BRANCH  15  28
HETATM   28  N   UNK N   1      30.775  15.855   6.264  0.00  0.00    -0.346 N 
HETATM   29  C   UNK N   1      31.444  16.051   7.427  0.00  0.00     0.241 C 
HETATM   30  O   UNK N   1      31.722  15.082   8.116  0.00  0.00    -0.271 OA
HETATM   31  H   UNK N   1      30.610  14.927   5.981  0.00  0.00     0.163 HD
BRANCH  29  32
HETATM   32  C   UNK N   1      31.840  17.431   7.888  0.00  0.00     0.177 C 
BRANCH  32  33
HETATM   33  C   UNK N   1      33.224  17.428   8.552  0.00  0.00     0.144 C 
BRANCH  33  34
HETATM   34  C   UNK N   1      34.270  18.188   7.783  0.00  0.00     0.141 C 
HETATM   35  O   UNK N   1      34.402  18.015   6.582  0.00  0.00    -0.650 OA
BRANCH  34  36
HETATM   36  O   UNK N   1      35.067  19.064   8.424  0.00  0.00    -0.776 OA
HETATM   37  H   UNK N   1      35.038  19.452   9.276  0.00  0.00     0.167 HD
ENDBRANCH  34  36
ENDBRANCH  33  34
ENDBRANCH  32  33
BRANCH  32  38
HETATM   38  N   UNK N   1      30.839  17.978   8.791  0.00  0.00    -0.418 N 
HETATM   39  H   UNK N   1      31.130  18.503   9.616  0.00  0.00     0.150 HD
HETATM   40  H   UNK N   1      29.848  17.836   8.600  0.00  0.00     0.150 HD
ENDBRANCH  32  38
ENDBRANCH  29  32
ENDBRANCH  15  28
ENDBRANCH  12  15
ENDBRANCH   6  11
ENDBRANCH   3   6
ENDBRANCH   1   2
BRANCH   1  41
HETATM   41  C   UNK N   1      24.475  14.615   1.351  0.00  0.00     0.073 C 
BRANCH  41  42
HETATM   42  C   UNK N   1      22.989  14.503   1.425  0.00  0.00    -0.056 A 
HETATM   43  C   UNK N   1      22.341  13.486   0.719  0.00  0.00     0.010 A 
HETATM   44  C   UNK N   1      20.948  13.386   0.754  0.00  0.00     0.037 A 
HETATM   45  C   UNK N   1      20.198  14.303   1.496  0.00  0.00     0.065 A 
HETATM   46  C   UNK N   1      20.842  15.327   2.197  0.00  0.00     0.037 A 
HETATM   47  C   UNK N   1      22.236  15.432   2.157  0.00  0.00     0.010 A 
BRANCH  45  48
HETATM   48  O   UNK N   1      18.861  14.199   1.534  0.00  0.00    -0.361 OA
HETATM   49  H   UNK N   1      18.374  14.028   2.317  0.00  0.00     0.217 HD
ENDBRANCH  45  48
ENDBRANCH  41  42
ENDBRANCH   1  41
BRANCH   1  50
HETATM   50  C   UNK N   1      26.016  13.313   2.922  0.00  0.00     0.241 C 
HETATM   51  O   UNK N   1      26.993  13.163   2.209  0.00  0.00    -0.271 OA
HETATM   52  N   UNK N   1      25.717  12.369   3.842  0.00  0.00    -0.346 N 
HETATM   53  H   UNK N   1      26.286  11.566   3.886  0.00  0.00     0.163 HD
BRANCH  52  54
HETATM   54  C   UNK N   1      24.609  12.471   4.770  0.00  0.00     0.180 C 
BRANCH  54  55
HETATM   55  C   UNK N   1      23.764  11.199   4.863  0.00  0.00     0.013 C 
HETATM   56  C   UNK N   1      23.101  10.932   3.527  0.00  0.00     0.012 C 
BRANCH  55  57
HETATM   57  C   UNK N   1      24.583   9.993   5.320  0.00  0.00     0.002 C 
HETATM   58  C   UNK N   1      24.022   9.387   6.594  0.00  0.00     0.005 C 
ENDBRANCH  55  57
ENDBRANCH  54  55
BRANCH  54  59
HETATM   59  C   UNK N   1      25.019  13.033   6.107  0.00  0.00     0.241 C 
HETATM   60  O   UNK N   1      26.210  13.125   6.355  0.00  0.00    -0.271 OA
HETATM   61  N   UNK N   1      24.121  13.397   7.057  0.00  0.00    -0.346 N 
HETATM   62  H   UNK N   1      24.463  13.741   7.915  0.00  0.00     0.163 HD
BRANCH  61  63
HETATM   63  C   UNK N   1      22.691  13.308   6.877  0.00  0.00     0.182 C 
BRANCH  63  64
HETATM   64  C   UNK N   1      21.983  12.277   7.760  0.00  0.00     0.093 C 
BRANCH  64  65
HETATM   65  C   UNK N   1      22.423  12.222   9.191  0.00  0.00     0.028 A 
HETATM   66  C   UNK N   1      22.006  13.086  10.172  0.00  0.00     0.114 A 
HETATM   67  N   UNK N   1      22.590  12.709  11.325  0.00  0.00    -0.360 N 
HETATM   68  C   UNK N   1      23.340  11.627  11.024  0.00  0.00     0.180 A 
HETATM   69  H   UNK N   1      22.492  13.136  12.207  0.00  0.00     0.166 HD
HETATM   70  N   UNK N   1      23.251  11.307   9.719  0.00  0.00    -0.354 N 
ATOM     71  HN  UNK N   1      23.712  10.536   9.237  1.00  0.00     0.166 HD
ENDBRANCH  64  65
ENDBRANCH  63  64
BRANCH  63  72
HETATM   72  C   UNK N   1      21.982  14.627   6.730  0.00  0.00     0.243 C 
HETATM   73  O   UNK N   1      22.531  15.618   7.187  0.00  0.00    -0.271 OA
HETATM   74  N   UNK N   1      20.766  14.748   6.113  0.00  0.00    -0.336 N 
HETATM   75  C   UNK N   1      20.070  13.643   5.520  0.00  0.00     0.127 C 
HETATM   76  C   UNK N   1      20.099  16.018   5.975  0.00  0.00     0.185 C 
HETATM   77  C   UNK N   1      18.795  14.224   4.944  0.00  0.00     0.022 C 
HETATM   78  C   UNK N   1      18.892  15.739   5.096  0.00  0.00     0.038 C 
BRANCH  76  79
HETATM   79  C   UNK N   1      19.652  16.577   7.303  0.00  0.00     0.163 C 
HETATM   80  O   UNK N   1      18.540  16.308   7.727  0.00  0.00    -0.648 OA
BRANCH  79  81
HETATM   81  O   UNK N   1      20.463  17.372   8.028  0.00  0.00    -0.775 OA
HETATM   82  H   UNK N   1      21.349  17.156   8.240  0.00  0.00     0.167 HD
ENDBRANCH  79  81
ENDBRANCH  76  79
ENDBRANCH  63  72
ENDBRANCH  61  63
ENDBRANCH  54  59
ENDBRANCH  52  54
ENDBRANCH   1  50
TORSDOF 31
ENDMDL
MODEL 5
REMARK VINA RESULT:      -7.4      1.348      3.058
REMARK  31 active torsions:
REMARK  status: ('A' for Active; 'I' for Inactive)
REMARK    1  A    between atoms: C_2  and  C_3 
REMARK    2  A    between atoms: C_3  and  C_4 
REMARK    3  A    between atoms: C_4  and  C_5 
REMARK    4  A    between atoms: C_5  and  C_6 
REMARK    5  A    between atoms: C_5  and  N_47 
REMARK       I    between atoms: C_6  and  N_8 
REMARK    6  A    between atoms: C_9  and  N_8 
REMARK    7  A    between atoms: C_9  and  C_10 
REMARK    8  A    between atoms: C_9  and  C_18 
REMARK    9  A    between atoms: C_10  and  C_11 
REMARK   10  A    between atoms: C_14  and  O_17 
REMARK       I    between atoms: C_18  and  N_20 
REMARK   11  A    between atoms: C_21  and  N_20 
REMARK   12  A    between atoms: C_21  and  C_22 
REMARK   13  A    between atoms: C_21  and  C_26 
REMARK   14  A    between atoms: C_22  and  C_24 
REMARK       I    between atoms: C_26  and  N_28 
REMARK   15  A    between atoms: C_29  and  N_28 
REMARK   16  A    between atoms: C_29  and  C_30 
REMARK   17  A    between atoms: C_29  and  C_37 
REMARK   18  A    between atoms: C_30  and  C_31 
REMARK       I    between atoms: C_37  and  N_39 
REMARK   19  A    between atoms: C_43  and  C_44 
REMARK   20  A    between atoms: C_44  and  O_46 
REMARK       I    between atoms: N_47  and  C_48 
REMARK   21  A    between atoms: C_48  and  C_50 
REMARK   22  A    between atoms: C_50  and  C_51 
REMARK   23  A    between atoms: C_50  and  N_59 
REMARK   24  A    between atoms: C_51  and  C_52 
REMARK   25  A    between atoms: C_52  and  C_53 
REMARK   26  A    between atoms: C_53  and  N_54 
REMARK       I    between atoms: N_54  and  C_55 
REMARK       I    between atoms: C_55  and  N_58 
REMARK       I    between atoms: N_59  and  C_60 
REMARK   27  A    between atoms: C_60  and  C_62 
REMARK   28  A    between atoms: C_62  and  C_63 
REMARK   29  A    between atoms: C_62  and  N_67 
REMARK   30  A    between atoms: C_63  and  C_64 
REMARK   31  A    between atoms: C_64  and  O_66 
ROOT
HETATM    1  C   UNK N   1      23.360  14.612   5.458  0.00  0.00     0.180 C 
ENDROOT
BRANCH   1   2
HETATM    2  N   UNK N   1      24.368  15.610   5.709  0.00  0.00    -0.346 N 
HETATM    3  C   UNK N   1      24.736  16.484   4.751  0.00  0.00     0.241 C 
HETATM    4  O   UNK N   1      24.247  16.395   3.630  0.00  0.00    -0.271 OA
HETATM    5  H   UNK N   1      24.795  15.655   6.595  0.00  0.00     0.163 HD
BRANCH   3   6
HETATM    6  C   UNK N   1      25.654  17.632   5.083  0.00  0.00     0.176 C 
BRANCH   6   7
HETATM    7  C   UNK N   1      25.395  18.756   4.072  0.00  0.00     0.035 C 
BRANCH   7   8
HETATM    8  C   UNK N   1      25.602  20.124   4.686  0.00  0.00     0.002 C 
BRANCH   8   9
HETATM    9  C   UNK N   1      27.086  20.430   4.670  0.00  0.00    -0.004 C 
HETATM   10  C   UNK N   1      27.511  21.034   5.989  0.00  0.00     0.005 C 
ENDBRANCH   8   9
ENDBRANCH   7   8
ENDBRANCH   6   7
BRANCH   6  11
HETATM   11  N   UNK N   1      26.994  17.064   5.029  0.00  0.00    -0.346 N 
HETATM   12  C   UNK N   1      27.657  16.473   6.054  0.00  0.00     0.241 C 
HETATM   13  O   UNK N   1      27.070  16.056   7.042  0.00  0.00    -0.271 OA
HETATM   14  H   UNK N   1      27.464  17.113   4.165  0.00  0.00     0.163 HD
BRANCH  12  15
HETATM   15  C   UNK N   1      29.147  16.571   6.069  0.00  0.00     0.176 C 
BRANCH  15  16
HETATM   16  C   UNK N   1      29.664  17.867   6.693  0.00  0.00     0.036 C 
BRANCH  16  17
HETATM   17  C   UNK N   1      29.686  17.879   8.223  0.00  0.00     0.023 C 
BRANCH  17  18
HETATM   18  C   UNK N   1      31.045  18.271   8.803  0.00  0.00     0.138 C 
BRANCH  18  19
HETATM   19  N   UNK N   1      31.957  17.150   8.825  0.00  0.00    -0.227 N 
HETATM   20  C   UNK N   1      33.353  17.300   8.632  0.00  0.00     0.665 C 
HETATM   21  N   UNK N   1      34.116  16.277   8.711  0.00  0.00    -0.235 N 
HETATM   22  N   UNK N   1      33.913  18.573   8.375  0.00  0.00    -0.235 N 
HETATM   23  H   UNK N   1      35.021  16.295   8.323  0.00  0.00     0.174 HD
ATOM     24  HN  UNK N   1      33.785  15.432   9.180  1.00  0.00     0.174 HD
HETATM   25  H   UNK N   1      33.498  19.409   8.686  0.00  0.00     0.174 HD
HETATM   26  H   UNK N   1      34.752  18.624   7.862  0.00  0.00     0.174 HD
HETATM   27  H   UNK N   1      31.594  16.248   8.979  0.00  0.00     0.177 HD
ENDBRANCH  18  19
ENDBRANCH  17  18
ENDBRANCH  16  17
ENDBRANCH  15  16
BRANCH  15  28
HETATM   28  N   UNK N   1      29.594  16.415   4.700  0.00  0.00    -0.346 N 
HETATM   29  C   UNK N   1      29.951  15.234   4.140  0.00  0.00     0.241 C 
HETATM   30  O   UNK N   1      30.217  15.205   2.949  0.00  0.00    -0.271 OA
HETATM   31  H   UNK N   1      29.641  17.222   4.139  0.00  0.00     0.163 HD
BRANCH  29  32
HETATM   32  C   UNK N   1      30.018  13.963   4.948  0.00  0.00     0.177 C 
BRANCH  32  33
HETATM   33  C   UNK N   1      31.463  13.610   5.327  0.00  0.00     0.144 C 
BRANCH  33  34
HETATM   34  C   UNK N   1      32.058  14.516   6.371  0.00  0.00     0.141 C 
HETATM   35  O   UNK N   1      32.076  14.180   7.544  0.00  0.00    -0.650 OA
BRANCH  34  36
HETATM   36  O   UNK N   1      32.574  15.706   6.009  0.00  0.00    -0.776 OA
HETATM   37  H   UNK N   1      32.198  16.485   5.651  0.00  0.00     0.167 HD
ENDBRANCH  34  36
ENDBRANCH  33  34
ENDBRANCH  32  33
BRANCH  32  38
HETATM   38  N   UNK N   1      29.393  12.864   4.230  0.00  0.00    -0.418 N 
HETATM   39  H   UNK N   1      28.792  12.206   4.726  0.00  0.00     0.150 HD
HETATM   40  H   UNK N   1      29.556  12.750   3.230  0.00  0.00     0.150 HD
ENDBRANCH  32  38
ENDBRANCH  29  32
ENDBRANCH  15  28
ENDBRANCH  12  15
ENDBRANCH   6  11
ENDBRANCH   3   6
ENDBRANCH   1   2
BRANCH   1  41
HETATM   41  C   UNK N   1      23.870  13.216   5.829  0.00  0.00     0.073 C 
BRANCH  41  42
HETATM   42  C   UNK N   1      23.941  12.988   7.302  0.00  0.00    -0.056 A 
HETATM   43  C   UNK N   1      22.933  12.254   7.932  0.00  0.00     0.010 A 
HETATM   44  C   UNK N   1      22.969  12.058   9.315  0.00  0.00     0.037 A 
HETATM   45  C   UNK N   1      24.013  12.594  10.072  0.00  0.00     0.065 A 
HETATM   46  C   UNK N   1      25.019  13.337   9.446  0.00  0.00     0.037 A 
HETATM   47  C   UNK N   1      24.980  13.541   8.063  0.00  0.00     0.010 A 
BRANCH  45  48
HETATM   48  O   UNK N   1      24.049  12.397  11.398  0.00  0.00    -0.361 OA
HETATM   49  H   UNK N   1      23.339  12.031  11.889  0.00  0.00     0.217 HD
ENDBRANCH  45  48
ENDBRANCH  41  42
ENDBRANCH   1  41
BRANCH   1  50
HETATM   50  C   UNK N   1      22.092  15.028   6.131  0.00  0.00     0.241 C 
HETATM   51  O   UNK N   1      22.160  15.679   7.160  0.00  0.00    -0.271 OA
HETATM   52  N   UNK N   1      20.879  14.670   5.654  0.00  0.00    -0.346 N 
HETATM   53  H   UNK N   1      20.082  14.921   6.175  0.00  0.00     0.163 HD
BRANCH  52  54
HETATM   54  C   UNK N   1      20.683  13.939   4.418  0.00  0.00     0.180 C 
BRANCH  54  55
HETATM   55  C   UNK N   1      21.080  12.464   4.505  0.00  0.00     0.013 C 
HETATM   56  C   UNK N   1      20.324  11.801   5.637  0.00  0.00     0.012 C 
BRANCH  55  57
HETATM   57  C   UNK N   1      20.852  11.727   3.186  0.00  0.00     0.002 C 
HETATM   58  C   UNK N   1      21.912  10.666   2.948  0.00  0.00     0.005 C 
ENDBRANCH  55  57
ENDBRANCH  54  55
BRANCH  54  59
HETATM   59  C   UNK N   1      19.323  14.173   3.813  0.00  0.00     0.241 C 
HETATM   60  O   UNK N   1      18.358  13.640   4.335  0.00  0.00    -0.271 OA
HETATM   61  N   UNK N   1      19.136  14.914   2.691  0.00  0.00    -0.346 N 
HETATM   62  H   UNK N   1      18.220  15.010   2.342  0.00  0.00     0.163 HD
BRANCH  61  63
HETATM   63  C   UNK N   1      20.210  15.570   1.981  0.00  0.00     0.182 C 
BRANCH  63  64
HETATM   64  C   UNK N   1      20.779  14.792   0.792  0.00  0.00     0.093 C 
BRANCH  64  65
HETATM   65  C   UNK N   1      22.126  14.169   0.995  0.00  0.00     0.028 A 
HETATM   66  C   UNK N   1      22.630  13.132   0.251  0.00  0.00     0.114 A 
HETATM   67  N   UNK N   1      23.868  12.865   0.706  0.00  0.00    -0.360 N 
HETATM   68  C   UNK N   1      24.093  13.742   1.706  0.00  0.00     0.180 A 
HETATM   69  H   UNK N   1      24.483  12.170   0.377  0.00  0.00     0.166 HD
HETATM   70  N   UNK N   1      23.038  14.557   1.901  0.00  0.00    -0.354 N 
ATOM     71  HN  UNK N   1      22.951  15.306   2.587  1.00  0.00     0.166 HD
ENDBRANCH  64  65
ENDBRANCH  63  64
BRANCH  63  72
HETATM   72  C   UNK N   1      20.019  17.045   1.756  0.00  0.00     0.243 C 
HETATM   73  O   UNK N   1      19.470  17.393   0.721  0.00  0.00    -0.271 OA
HETATM   74  N   UNK N   1      20.433  17.990   2.656  0.00  0.00    -0.336 N 
HETATM   75  C   UNK N   1      21.053  17.667   3.908  0.00  0.00     0.127 C 
HETATM   76  C   UNK N   1      20.241  19.400   2.430  0.00  0.00     0.185 C 
HETATM   77  C   UNK N   1      21.326  18.995   4.585  0.00  0.00     0.022 C 
HETATM   78  C   UNK N   1      20.674  20.072   3.722  0.00  0.00     0.038 C 
BRANCH  76  79
HETATM   79  C   UNK N   1      21.069  19.914   1.278  0.00  0.00     0.163 C 
HETATM   80  O   UNK N   1      22.145  20.444   1.499  0.00  0.00    -0.648 OA
BRANCH  79  81
HETATM   81  O   UNK N   1      20.636  19.799   0.008  0.00  0.00    -0.775 OA
HETATM   82  H   UNK N   1      20.470  20.530  -0.554  0.00  0.00     0.167 HD
ENDBRANCH  79  81
ENDBRANCH  76  79
ENDBRANCH  63  72
ENDBRANCH  61  63
ENDBRANCH  54  59
ENDBRANCH  52  54
ENDBRANCH   1  50
TORSDOF 31
ENDMDL
MODEL 6
REMARK VINA RESULT:      -7.4      1.875      3.383
REMARK  31 active torsions:
REMARK  status: ('A' for Active; 'I' for Inactive)
REMARK    1  A    between atoms: C_2  and  C_3 
REMARK    2  A    between atoms: C_3  and  C_4 
REMARK    3  A    between atoms: C_4  and  C_5 
REMARK    4  A    between atoms: C_5  and  C_6 
REMARK    5  A    between atoms: C_5  and  N_47 
REMARK       I    between atoms: C_6  and  N_8 
REMARK    6  A    between atoms: C_9  and  N_8 
REMARK    7  A    between atoms: C_9  and  C_10 
REMARK    8  A    between atoms: C_9  and  C_18 
REMARK    9  A    between atoms: C_10  and  C_11 
REMARK   10  A    between atoms: C_14  and  O_17 
REMARK       I    between atoms: C_18  and  N_20 
REMARK   11  A    between atoms: C_21  and  N_20 
REMARK   12  A    between atoms: C_21  and  C_22 
REMARK   13  A    between atoms: C_21  and  C_26 
REMARK   14  A    between atoms: C_22  and  C_24 
REMARK       I    between atoms: C_26  and  N_28 
REMARK   15  A    between atoms: C_29  and  N_28 
REMARK   16  A    between atoms: C_29  and  C_30 
REMARK   17  A    between atoms: C_29  and  C_37 
REMARK   18  A    between atoms: C_30  and  C_31 
REMARK       I    between atoms: C_37  and  N_39 
REMARK   19  A    between atoms: C_43  and  C_44 
REMARK   20  A    between atoms: C_44  and  O_46 
REMARK       I    between atoms: N_47  and  C_48 
REMARK   21  A    between atoms: C_48  and  C_50 
REMARK   22  A    between atoms: C_50  and  C_51 
REMARK   23  A    between atoms: C_50  and  N_59 
REMARK   24  A    between atoms: C_51  and  C_52 
REMARK   25  A    between atoms: C_52  and  C_53 
REMARK   26  A    between atoms: C_53  and  N_54 
REMARK       I    between atoms: N_54  and  C_55 
REMARK       I    between atoms: C_55  and  N_58 
REMARK       I    between atoms: N_59  and  C_60 
REMARK   27  A    between atoms: C_60  and  C_62 
REMARK   28  A    between atoms: C_62  and  C_63 
REMARK   29  A    between atoms: C_62  and  N_67 
REMARK   30  A    between atoms: C_63  and  C_64 
REMARK   31  A    between atoms: C_64  and  O_66 
ROOT
HETATM    1  C   UNK N   1      23.418  15.133   4.990  0.00  0.00     0.180 C 
ENDROOT
BRANCH   1   2
HETATM    2  N   UNK N   1      24.310  16.261   5.068  0.00  0.00    -0.346 N 
HETATM    3  C   UNK N   1      25.607  16.100   5.403  0.00  0.00     0.241 C 
HETATM    4  O   UNK N   1      26.022  14.986   5.700  0.00  0.00    -0.271 OA
HETATM    5  H   UNK N   1      23.969  17.164   4.874  0.00  0.00     0.163 HD
BRANCH   3   6
HETATM    6  C   UNK N   1      26.565  17.259   5.302  0.00  0.00     0.176 C 
BRANCH   6   7
HETATM    7  C   UNK N   1      26.280  17.998   3.988  0.00  0.00     0.035 C 
BRANCH   7   8
HETATM    8  C   UNK N   1      26.950  19.355   3.950  0.00  0.00     0.002 C 
BRANCH   8   9
HETATM    9  C   UNK N   1      26.995  19.901   5.363  0.00  0.00    -0.004 C 
HETATM   10  C   UNK N   1      26.436  21.305   5.401  0.00  0.00     0.005 C 
ENDBRANCH   8   9
ENDBRANCH   7   8
ENDBRANCH   6   7
BRANCH   6  11
HETATM   11  N   UNK N   1      27.888  16.657   5.385  0.00  0.00    -0.346 N 
HETATM   12  C   UNK N   1      28.866  16.987   6.265  0.00  0.00     0.241 C 
HETATM   13  O   UNK N   1      28.623  17.595   7.297  0.00  0.00    -0.271 OA
HETATM   14  H   UNK N   1      28.092  15.941   4.741  0.00  0.00     0.163 HD
BRANCH  12  15
HETATM   15  C   UNK N   1      30.283  16.820   5.826  0.00  0.00     0.176 C 
BRANCH  15  16
HETATM   16  C   UNK N   1      30.425  16.518   4.334  0.00  0.00     0.036 C 
BRANCH  16  17
HETATM   17  C   UNK N   1      31.241  15.266   4.006  0.00  0.00     0.023 C 
BRANCH  17  18
HETATM   18  C   UNK N   1      30.457  14.228   3.203  0.00  0.00     0.138 C 
BRANCH  18  19
HETATM   19  N   UNK N   1      29.401  14.840   2.431  0.00  0.00    -0.227 N 
HETATM   20  C   UNK N   1      28.034  14.509   2.612  0.00  0.00     0.665 C 
HETATM   21  N   UNK N   1      27.139  15.121   1.933  0.00  0.00    -0.235 N 
HETATM   22  N   UNK N   1      27.650  13.524   3.551  0.00  0.00    -0.235 N 
HETATM   23  H   UNK N   1      26.237  14.738   1.833  0.00  0.00     0.174 HD
ATOM     24  HN  UNK N   1      27.361  16.013   1.490  1.00  0.00     0.174 HD
HETATM   25  H   UNK N   1      28.183  13.315   4.352  0.00  0.00     0.174 HD
HETATM   26  H   UNK N   1      26.815  13.026   3.397  0.00  0.00     0.174 HD
HETATM   27  H   UNK N   1      29.639  15.513   1.753  0.00  0.00     0.177 HD
ENDBRANCH  18  19
ENDBRANCH  17  18
ENDBRANCH  16  17
ENDBRANCH  15  16
BRANCH  15  28
HETATM   28  N   UNK N   1      30.858  15.773   6.644  0.00  0.00    -0.346 N 
HETATM   29  C   UNK N   1      31.603  15.990   7.755  0.00  0.00     0.241 C 
HETATM   30  O   UNK N   1      31.954  15.031   8.425  0.00  0.00    -0.271 OA
HETATM   31  H   UNK N   1      30.698  14.840   6.374  0.00  0.00     0.163 HD
BRANCH  29  32
HETATM   32  C   UNK N   1      31.996  17.380   8.185  0.00  0.00     0.177 C 
BRANCH  32  33
HETATM   33  C   UNK N   1      33.430  17.420   8.729  0.00  0.00     0.144 C 
BRANCH  33  34
HETATM   34  C   UNK N   1      34.384  18.213   7.878  0.00  0.00     0.141 C 
HETATM   35  O   UNK N   1      35.084  19.079   8.376  0.00  0.00    -0.650 OA
BRANCH  34  36
HETATM   36  O   UNK N   1      34.465  17.965   6.557  0.00  0.00    -0.776 OA
HETATM   37  H   UNK N   1      34.436  18.515   5.799  0.00  0.00     0.167 HD
ENDBRANCH  34  36
ENDBRANCH  33  34
ENDBRANCH  32  33
BRANCH  32  38
HETATM   38  N   UNK N   1      31.059  17.898   9.170  0.00  0.00    -0.418 N 
HETATM   39  H   UNK N   1      31.404  18.413   9.981  0.00  0.00     0.150 HD
HETATM   40  H   UNK N   1      30.058  17.746   9.052  0.00  0.00     0.150 HD
ENDBRANCH  32  38
ENDBRANCH  29  32
ENDBRANCH  15  28
ENDBRANCH  12  15
ENDBRANCH   6  11
ENDBRANCH   3   6
ENDBRANCH   1   2
BRANCH   1  41
HETATM   41  C   UNK N   1      24.180  13.859   4.616  0.00  0.00     0.073 C 
BRANCH  41  42
HETATM   42  C   UNK N   1      24.075  13.515   3.168  0.00  0.00    -0.056 A 
HETATM   43  C   UNK N   1      23.712  14.505   2.252  0.00  0.00     0.010 A 
HETATM   44  C   UNK N   1      23.579  14.191   0.897  0.00  0.00     0.037 A 
HETATM   45  C   UNK N   1      23.811  12.887   0.454  0.00  0.00     0.065 A 
HETATM   46  C   UNK N   1      24.167  11.891   1.368  0.00  0.00     0.037 A 
HETATM   47  C   UNK N   1      24.292  12.202   2.726  0.00  0.00     0.010 A 
BRANCH  45  48
HETATM   48  O   UNK N   1      23.692  12.591  -0.850  0.00  0.00    -0.361 OA
HETATM   49  H   UNK N   1      23.484  13.223  -1.510  0.00  0.00     0.217 HD
ENDBRANCH  45  48
ENDBRANCH  41  42
ENDBRANCH   1  41
BRANCH   1  50
HETATM   50  C   UNK N   1      22.627  15.056   6.256  0.00  0.00     0.241 C 
HETATM   51  O   UNK N   1      23.194  15.259   7.316  0.00  0.00    -0.271 OA
HETATM   52  N   UNK N   1      21.314  14.730   6.260  0.00  0.00    -0.346 N 
HETATM   53  H   UNK N   1      20.862  14.634   7.130  0.00  0.00     0.163 HD
BRANCH  52  54
HETATM   54  C   UNK N   1      20.534  14.515   5.059  0.00  0.00     0.180 C 
BRANCH  54  55
HETATM   55  C   UNK N   1      20.286  13.040   4.740  0.00  0.00     0.013 C 
HETATM   56  C   UNK N   1      20.816  12.724   3.356  0.00  0.00     0.012 C 
BRANCH  55  57
HETATM   57  C   UNK N   1      20.900  12.112   5.787  0.00  0.00     0.002 C 
HETATM   58  C   UNK N   1      21.751  11.030   5.147  0.00  0.00     0.005 C 
ENDBRANCH  55  57
ENDBRANCH  54  55
BRANCH  54  59
HETATM   59  C   UNK N   1      19.293  15.369   5.011  0.00  0.00     0.241 C 
HETATM   60  O   UNK N   1      18.333  15.033   5.684  0.00  0.00    -0.271 OA
HETATM   61  N   UNK N   1      19.188  16.467   4.219  0.00  0.00    -0.346 N 
HETATM   62  H   UNK N   1      18.339  16.967   4.226  0.00  0.00     0.163 HD
BRANCH  61  63
HETATM   63  C   UNK N   1      20.254  16.940   3.367  0.00  0.00     0.182 C 
BRANCH  63  64
HETATM   64  C   UNK N   1      20.679  15.977   2.254  0.00  0.00     0.093 C 
BRANCH  64  65
HETATM   65  C   UNK N   1      19.683  15.757   1.157  0.00  0.00     0.028 A 
HETATM   66  C   UNK N   1      19.083  14.555   0.874  0.00  0.00     0.114 A 
HETATM   67  N   UNK N   1      18.235  14.754  -0.152  0.00  0.00    -0.360 N 
HETATM   68  C   UNK N   1      18.330  16.063  -0.465  0.00  0.00     0.180 A 
HETATM   69  H   UNK N   1      17.662  14.080  -0.587  0.00  0.00     0.166 HD
HETATM   70  N   UNK N   1      19.212  16.702   0.329  0.00  0.00    -0.354 N 
ATOM     71  HN  UNK N   1      19.465  17.689   0.305  1.00  0.00     0.166 HD
ENDBRANCH  64  65
ENDBRANCH  63  64
BRANCH  63  72
HETATM   72  C   UNK N   1      20.156  18.387   2.965  0.00  0.00     0.243 C 
HETATM   73  O   UNK N   1      19.055  18.813   2.650  0.00  0.00    -0.271 OA
HETATM   74  N   UNK N   1      21.240  19.222   2.941  0.00  0.00    -0.336 N 
HETATM   75  C   UNK N   1      22.559  18.812   3.328  0.00  0.00     0.127 C 
HETATM   76  C   UNK N   1      21.132  20.607   2.558  0.00  0.00     0.185 C 
HETATM   77  C   UNK N   1      23.432  20.040   3.168  0.00  0.00     0.022 C 
HETATM   78  C   UNK N   1      22.503  21.203   2.834  0.00  0.00     0.038 C 
BRANCH  76  79
HETATM   79  C   UNK N   1      20.781  20.773   1.100  0.00  0.00     0.163 C 
HETATM   80  O   UNK N   1      20.606  21.891   0.646  0.00  0.00    -0.648 OA
BRANCH  79  81
HETATM   81  O   UNK N   1      20.658  19.703   0.291  0.00  0.00    -0.775 OA
HETATM   82  H   UNK N   1      21.328  19.416  -0.297  0.00  0.00     0.167 HD
ENDBRANCH  79  81
ENDBRANCH  76  79
ENDBRANCH  63  72
ENDBRANCH  61  63
ENDBRANCH  54  59
ENDBRANCH  52  54
ENDBRANCH   1  50
TORSDOF 31
ENDMDL
MODEL 7
REMARK VINA RESULT:      -7.2      2.568      6.884
REMARK  31 active torsions:
REMARK  status: ('A' for Active; 'I' for Inactive)
REMARK    1  A    between atoms: C_2  and  C_3 
REMARK    2  A    between atoms: C_3  and  C_4 
REMARK    3  A    between atoms: C_4  and  C_5 
REMARK    4  A    between atoms: C_5  and  C_6 
REMARK    5  A    between atoms: C_5  and  N_47 
REMARK       I    between atoms: C_6  and  N_8 
REMARK    6  A    between atoms: C_9  and  N_8 
REMARK    7  A    between atoms: C_9  and  C_10 
REMARK    8  A    between atoms: C_9  and  C_18 
REMARK    9  A    between atoms: C_10  and  C_11 
REMARK   10  A    between atoms: C_14  and  O_17 
REMARK       I    between atoms: C_18  and  N_20 
REMARK   11  A    between atoms: C_21  and  N_20 
REMARK   12  A    between atoms: C_21  and  C_22 
REMARK   13  A    between atoms: C_21  and  C_26 
REMARK   14  A    between atoms: C_22  and  C_24 
REMARK       I    between atoms: C_26  and  N_28 
REMARK   15  A    between atoms: C_29  and  N_28 
REMARK   16  A    between atoms: C_29  and  C_30 
REMARK   17  A    between atoms: C_29  and  C_37 
REMARK   18  A    between atoms: C_30  and  C_31 
REMARK       I    between atoms: C_37  and  N_39 
REMARK   19  A    between atoms: C_43  and  C_44 
REMARK   20  A    between atoms: C_44  and  O_46 
REMARK       I    between atoms: N_47  and  C_48 
REMARK   21  A    between atoms: C_48  and  C_50 
REMARK   22  A    between atoms: C_50  and  C_51 
REMARK   23  A    between atoms: C_50  and  N_59 
REMARK   24  A    between atoms: C_51  and  C_52 
REMARK   25  A    between atoms: C_52  and  C_53 
REMARK   26  A    between atoms: C_53  and  N_54 
REMARK       I    between atoms: N_54  and  C_55 
REMARK       I    between atoms: C_55  and  N_58 
REMARK       I    between atoms: N_59  and  C_60 
REMARK   27  A    between atoms: C_60  and  C_62 
REMARK   28  A    between atoms: C_62  and  C_63 
REMARK   29  A    between atoms: C_62  and  N_67 
REMARK   30  A    between atoms: C_63  and  C_64 
REMARK   31  A    between atoms: C_64  and  O_66 
ROOT
HETATM    1  C   UNK N   1      24.039  13.947   1.948  0.00  0.00     0.180 C 
ENDROOT
BRANCH   1   2
HETATM    2  N   UNK N   1      25.474  13.950   1.821  0.00  0.00    -0.346 N 
HETATM    3  C   UNK N   1      26.209  14.993   2.258  0.00  0.00     0.241 C 
HETATM    4  O   UNK N   1      25.646  15.979   2.719  0.00  0.00    -0.271 OA
HETATM    5  H   UNK N   1      25.926  13.178   1.410  0.00  0.00     0.163 HD
BRANCH   3   6
HETATM    6  C   UNK N   1      27.713  14.902   2.284  0.00  0.00     0.176 C 
BRANCH   6   7
HETATM    7  C   UNK N   1      28.097  13.565   2.933  0.00  0.00     0.035 C 
BRANCH   7   8
HETATM    8  C   UNK N   1      28.947  12.718   2.012  0.00  0.00     0.002 C 
BRANCH   8   9
HETATM    9  C   UNK N   1      28.168  11.464   1.668  0.00  0.00    -0.004 C 
HETATM   10  C   UNK N   1      28.706  10.844   0.398  0.00  0.00     0.005 C 
ENDBRANCH   8   9
ENDBRANCH   7   8
ENDBRANCH   6   7
BRANCH   6  11
HETATM   11  N   UNK N   1      28.144  16.080   3.023  0.00  0.00    -0.346 N 
HETATM   12  C   UNK N   1      29.405  16.577   3.076  0.00  0.00     0.241 C 
HETATM   13  O   UNK N   1      30.247  16.281   2.242  0.00  0.00    -0.271 OA
HETATM   14  H   UNK N   1      27.454  16.564   3.533  0.00  0.00     0.163 HD
BRANCH  12  15
HETATM   15  C   UNK N   1      29.821  17.291   4.320  0.00  0.00     0.176 C 
BRANCH  15  16
HETATM   16  C   UNK N   1      28.900  18.454   4.688  0.00  0.00     0.036 C 
BRANCH  16  17
HETATM   17  C   UNK N   1      28.358  18.417   6.119  0.00  0.00     0.023 C 
BRANCH  17  18
HETATM   18  C   UNK N   1      27.054  19.198   6.291  0.00  0.00     0.138 C 
BRANCH  18  19
HETATM   19  N   UNK N   1      25.938  18.506   5.688  0.00  0.00    -0.227 N 
HETATM   20  C   UNK N   1      25.219  19.036   4.587  0.00  0.00     0.665 C 
HETATM   21  N   UNK N   1      24.271  18.355   4.064  0.00  0.00    -0.235 N 
HETATM   22  N   UNK N   1      25.554  20.299   4.048  0.00  0.00    -0.235 N 
HETATM   23  H   UNK N   1      23.593  18.791   3.499  0.00  0.00     0.174 HD
ATOM     24  HN  UNK N   1      24.215  17.350   4.235  1.00  0.00     0.174 HD
HETATM   25  H   UNK N   1      26.460  20.679   4.106  0.00  0.00     0.174 HD
HETATM   26  H   UNK N   1      24.851  20.821   3.596  0.00  0.00     0.174 HD
HETATM   27  H   UNK N   1      25.666  17.635   6.057  0.00  0.00     0.177 HD
ENDBRANCH  18  19
ENDBRANCH  17  18
ENDBRANCH  16  17
ENDBRANCH  15  16
BRANCH  15  28
HETATM   28  N   UNK N   1      31.187  17.727   4.121  0.00  0.00    -0.346 N 
HETATM   29  C   UNK N   1      32.211  17.450   4.964  0.00  0.00     0.241 C 
HETATM   30  O   UNK N   1      33.342  17.783   4.646  0.00  0.00    -0.271 OA
HETATM   31  H   UNK N   1      31.385  18.262   3.319  0.00  0.00     0.163 HD
BRANCH  29  32
HETATM   32  C   UNK N   1      31.987  16.733   6.272  0.00  0.00     0.177 C 
BRANCH  32  33
HETATM   33  C   UNK N   1      32.179  17.673   7.470  0.00  0.00     0.144 C 
BRANCH  33  34
HETATM   34  C   UNK N   1      33.575  17.669   8.031  0.00  0.00     0.141 C 
HETATM   35  O   UNK N   1      33.797  17.205   9.138  0.00  0.00    -0.650 OA
BRANCH  34  36
HETATM   36  O   UNK N   1      34.588  18.181   7.306  0.00  0.00    -0.776 OA
HETATM   37  H   UNK N   1      34.631  18.590   6.464  0.00  0.00     0.167 HD
ENDBRANCH  34  36
ENDBRANCH  33  34
ENDBRANCH  32  33
BRANCH  32  38
HETATM   38  N   UNK N   1      32.863  15.577   6.381  0.00  0.00    -0.418 N 
HETATM   39  H   UNK N   1      33.808  15.686   6.752  0.00  0.00     0.150 HD
HETATM   40  H   UNK N   1      32.534  14.658   6.088  0.00  0.00     0.150 HD
ENDBRANCH  32  38
ENDBRANCH  29  32
ENDBRANCH  15  28
ENDBRANCH  12  15
ENDBRANCH   6  11
ENDBRANCH   3   6
ENDBRANCH   1   2
BRANCH   1  41
HETATM   41  C   UNK N   1      23.370  13.901   0.572  0.00  0.00     0.073 C 
BRANCH  41  42
HETATM   42  C   UNK N   1      21.879  13.908   0.643  0.00  0.00    -0.056 A 
HETATM   43  C   UNK N   1      21.211  15.105   0.916  0.00  0.00     0.010 A 
HETATM   44  C   UNK N   1      19.818  15.122   1.016  0.00  0.00     0.037 A 
HETATM   45  C   UNK N   1      19.088  13.944   0.842  0.00  0.00     0.065 A 
HETATM   46  C   UNK N   1      19.753  12.743   0.576  0.00  0.00     0.037 A 
HETATM   47  C   UNK N   1      21.148  12.723   0.484  0.00  0.00     0.010 A 
BRANCH  45  48
HETATM   48  O   UNK N   1      17.749  13.966   0.929  0.00  0.00    -0.361 OA
HETATM   49  H   UNK N   1      17.182  13.493   0.352  0.00  0.00     0.217 HD
ENDBRANCH  45  48
ENDBRANCH  41  42
ENDBRANCH   1  41
BRANCH   1  50
HETATM   50  C   UNK N   1      23.641  12.855   2.889  0.00  0.00     0.241 C 
HETATM   51  O   UNK N   1      23.789  11.697   2.539  0.00  0.00    -0.271 OA
HETATM   52  N   UNK N   1      23.088  13.117   4.095  0.00  0.00    -0.346 N 
HETATM   53  H   UNK N   1      22.789  12.355   4.644  0.00  0.00     0.163 HD
BRANCH  52  54
HETATM   54  C   UNK N   1      22.911  14.453   4.627  0.00  0.00     0.180 C 
BRANCH  54  55
HETATM   55  C   UNK N   1      21.454  14.811   4.922  0.00  0.00     0.013 C 
HETATM   56  C   UNK N   1      21.149  16.190   4.373  0.00  0.00     0.012 C 
BRANCH  55  57
HETATM   57  C   UNK N   1      20.480  13.772   4.368  0.00  0.00     0.002 C 
HETATM   58  C   UNK N   1      19.036  14.185   4.588  0.00  0.00     0.005 C 
ENDBRANCH  55  57
ENDBRANCH  54  55
BRANCH  54  59
HETATM   59  C   UNK N   1      23.859  14.758   5.758  0.00  0.00     0.241 C 
HETATM   60  O   UNK N   1      24.380  15.860   5.795  0.00  0.00    -0.271 OA
HETATM   61  N   UNK N   1      24.186  13.845   6.708  0.00  0.00    -0.346 N 
HETATM   62  H   UNK N   1      24.826  14.110   7.409  0.00  0.00     0.163 HD
BRANCH  61  63
HETATM   63  C   UNK N   1      23.646  12.506   6.746  0.00  0.00     0.182 C 
BRANCH  63  64
HETATM   64  C   UNK N   1      24.664  11.383   6.532  0.00  0.00     0.093 C 
BRANCH  64  65
HETATM   65  C   UNK N   1      24.102  10.048   6.150  0.00  0.00     0.028 A 
HETATM   66  C   UNK N   1      24.029   8.961   6.985  0.00  0.00     0.114 A 
HETATM   67  N   UNK N   1      23.443   7.960   6.303  0.00  0.00    -0.360 N 
HETATM   68  C   UNK N   1      23.168   8.456   5.078  0.00  0.00     0.180 A 
HETATM   69  H   UNK N   1      23.255   7.050   6.631  0.00  0.00     0.166 HD
HETATM   70  N   UNK N   1      23.560   9.739   4.961  0.00  0.00    -0.354 N 
ATOM     71  HN  UNK N   1      23.465  10.345   4.146  1.00  0.00     0.166 HD
ENDBRANCH  64  65
ENDBRANCH  63  64
BRANCH  63  72
HETATM   72  C   UNK N   1      22.629  12.258   7.828  0.00  0.00     0.243 C 
HETATM   73  O   UNK N   1      21.469  12.088   7.485  0.00  0.00    -0.271 OA
HETATM   74  N   UNK N   1      22.958  12.219   9.156  0.00  0.00    -0.336 N 
HETATM   75  C   UNK N   1      24.300  12.375   9.640  0.00  0.00     0.127 C 
HETATM   76  C   UNK N   1      21.977  11.976  10.182  0.00  0.00     0.185 C 
HETATM   77  C   UNK N   1      24.209  12.246  11.147  0.00  0.00     0.022 C 
HETATM   78  C   UNK N   1      22.773  11.842  11.469  0.00  0.00     0.038 C 
BRANCH  76  79
HETATM   79  C   UNK N   1      20.985  13.107  10.305  0.00  0.00     0.163 C 
HETATM   80  O   UNK N   1      19.891  12.897  10.802  0.00  0.00    -0.648 OA
BRANCH  79  81
HETATM   81  O   UNK N   1      21.290  14.346   9.874  0.00  0.00    -0.775 OA
HETATM   82  H   UNK N   1      20.878  15.124  10.193  0.00  0.00     0.167 HD
ENDBRANCH  79  81
ENDBRANCH  76  79
ENDBRANCH  63  72
ENDBRANCH  61  63
ENDBRANCH  54  59
ENDBRANCH  52  54
ENDBRANCH   1  50
TORSDOF 31
ENDMDL
MODEL 8
REMARK VINA RESULT:      -7.1      2.613      8.035
REMARK  31 active torsions:
REMARK  status: ('A' for Active; 'I' for Inactive)
REMARK    1  A    between atoms: C_2  and  C_3 
REMARK    2  A    between atoms: C_3  and  C_4 
REMARK    3  A    between atoms: C_4  and  C_5 
REMARK    4  A    between atoms: C_5  and  C_6 
REMARK    5  A    between atoms: C_5  and  N_47 
REMARK       I    between atoms: C_6  and  N_8 
REMARK    6  A    between atoms: C_9  and  N_8 
REMARK    7  A    between atoms: C_9  and  C_10 
REMARK    8  A    between atoms: C_9  and  C_18 
REMARK    9  A    between atoms: C_10  and  C_11 
REMARK   10  A    between atoms: C_14  and  O_17 
REMARK       I    between atoms: C_18  and  N_20 
REMARK   11  A    between atoms: C_21  and  N_20 
REMARK   12  A    between atoms: C_21  and  C_22 
REMARK   13  A    between atoms: C_21  and  C_26 
REMARK   14  A    between atoms: C_22  and  C_24 
REMARK       I    between atoms: C_26  and  N_28 
REMARK   15  A    between atoms: C_29  and  N_28 
REMARK   16  A    between atoms: C_29  and  C_30 
REMARK   17  A    between atoms: C_29  and  C_37 
REMARK   18  A    between atoms: C_30  and  C_31 
REMARK       I    between atoms: C_37  and  N_39 
REMARK   19  A    between atoms: C_43  and  C_44 
REMARK   20  A    between atoms: C_44  and  O_46 
REMARK       I    between atoms: N_47  and  C_48 
REMARK   21  A    between atoms: C_48  and  C_50 
REMARK   22  A    between atoms: C_50  and  C_51 
REMARK   23  A    between atoms: C_50  and  N_59 
REMARK   24  A    between atoms: C_51  and  C_52 
REMARK   25  A    between atoms: C_52  and  C_53 
REMARK   26  A    between atoms: C_53  and  N_54 
REMARK       I    between atoms: N_54  and  C_55 
REMARK       I    between atoms: C_55  and  N_58 
REMARK       I    between atoms: N_59  and  C_60 
REMARK   27  A    between atoms: C_60  and  C_62 
REMARK   28  A    between atoms: C_62  and  C_63 
REMARK   29  A    between atoms: C_62  and  N_67 
REMARK   30  A    between atoms: C_63  and  C_64 
REMARK   31  A    between atoms: C_64  and  O_66 
ROOT
HETATM    1  C   UNK N   1      27.669  15.991   4.796  0.00  0.00     0.180 C 
ENDROOT
BRANCH   1   2
HETATM    2  N   UNK N   1      26.903  14.822   4.451  0.00  0.00    -0.346 N 
HETATM    3  C   UNK N   1      25.746  14.536   5.082  0.00  0.00     0.241 C 
HETATM    4  O   UNK N   1      25.366  15.250   6.003  0.00  0.00    -0.271 OA
HETATM    5  H   UNK N   1      27.228  14.221   3.742  0.00  0.00     0.163 HD
BRANCH   3   6
HETATM    6  C   UNK N   1      24.869  13.415   4.587  0.00  0.00     0.176 C 
BRANCH   6   7
HETATM    7  C   UNK N   1      24.059  13.938   3.393  0.00  0.00     0.035 C 
BRANCH   7   8
HETATM    8  C   UNK N   1      24.666  13.514   2.073  0.00  0.00     0.002 C 
BRANCH   8   9
HETATM    9  C   UNK N   1      23.727  13.938   0.962  0.00  0.00    -0.004 C 
HETATM   10  C   UNK N   1      23.573  12.824  -0.049  0.00  0.00     0.005 C 
ENDBRANCH   8   9
ENDBRANCH   7   8
ENDBRANCH   6   7
BRANCH   6  11
HETATM   11  N   UNK N   1      24.069  13.031   5.741  0.00  0.00    -0.346 N 
HETATM   12  C   UNK N   1      23.895  11.771   6.213  0.00  0.00     0.241 C 
HETATM   13  O   UNK N   1      24.660  10.864   5.920  0.00  0.00    -0.271 OA
HETATM   14  H   UNK N   1      23.610  13.754   6.226  0.00  0.00     0.163 HD
BRANCH  12  15
HETATM   15  C   UNK N   1      22.603  11.454   6.893  0.00  0.00     0.176 C 
BRANCH  15  16
HETATM   16  C   UNK N   1      21.591  10.762   5.981  0.00  0.00     0.036 C 
BRANCH  16  17
HETATM   17  C   UNK N   1      21.349  11.462   4.641  0.00  0.00     0.023 C 
BRANCH  17  18
HETATM   18  C   UNK N   1      20.126  12.380   4.652  0.00  0.00     0.138 C 
BRANCH  18  19
HETATM   19  N   UNK N   1      19.678  12.684   3.313  0.00  0.00    -0.227 N 
HETATM   20  C   UNK N   1      19.317  13.994   2.909  0.00  0.00     0.665 C 
HETATM   21  N   UNK N   1      18.975  14.210   1.695  0.00  0.00    -0.235 N 
HETATM   22  N   UNK N   1      19.353  15.067   3.829  0.00  0.00    -0.235 N 
HETATM   23  H   UNK N   1      18.470  15.020   1.454  0.00  0.00     0.174 HD
ATOM     24  HN  UNK N   1      19.227  13.537   0.970  1.00  0.00     0.174 HD
HETATM   25  H   UNK N   1      19.954  15.080   4.608  0.00  0.00     0.174 HD
HETATM   26  H   UNK N   1      18.750  15.832   3.684  0.00  0.00     0.174 HD
HETATM   27  H   UNK N   1      19.621  11.953   2.656  0.00  0.00     0.177 HD
ENDBRANCH  18  19
ENDBRANCH  17  18
ENDBRANCH  16  17
ENDBRANCH  15  16
BRANCH  15  28
HETATM   28  N   UNK N   1      22.088  12.699   7.423  0.00  0.00    -0.346 N 
HETATM   29  C   UNK N   1      22.258  13.117   8.701  0.00  0.00     0.241 C 
HETATM   30  O   UNK N   1      21.867  14.231   9.013  0.00  0.00    -0.271 OA
HETATM   31  H   UNK N   1      21.580  13.281   6.814  0.00  0.00     0.163 HD
BRANCH  29  32
HETATM   32  C   UNK N   1      22.925  12.247   9.736  0.00  0.00     0.177 C 
BRANCH  32  33
HETATM   33  C   UNK N   1      22.446  12.587  11.154  0.00  0.00     0.144 C 
BRANCH  33  34
HETATM   34  C   UNK N   1      23.201  11.871  12.240  0.00  0.00     0.141 C 
HETATM   35  O   UNK N   1      24.411  11.996  12.339  0.00  0.00    -0.650 OA
BRANCH  34  36
HETATM   36  O   UNK N   1      22.537  11.086  13.110  0.00  0.00    -0.776 OA
HETATM   37  H   UNK N   1      22.519  11.038  14.046  0.00  0.00     0.167 HD
ENDBRANCH  34  36
ENDBRANCH  33  34
ENDBRANCH  32  33
BRANCH  32  38
HETATM   38  N   UNK N   1      24.373  12.357   9.644  0.00  0.00    -0.418 N 
HETATM   39  H   UNK N   1      24.796  12.945   8.926  0.00  0.00     0.150 HD
HETATM   40  H   UNK N   1      24.966  11.847  10.298  0.00  0.00     0.150 HD
ENDBRANCH  32  38
ENDBRANCH  29  32
ENDBRANCH  15  28
ENDBRANCH  12  15
ENDBRANCH   6  11
ENDBRANCH   3   6
ENDBRANCH   1   2
BRANCH   1  41
HETATM   41  C   UNK N   1      28.893  15.613   5.635  0.00  0.00     0.073 C 
BRANCH  41  42
HETATM   42  C   UNK N   1      29.078  16.485   6.831  0.00  0.00    -0.056 A 
HETATM   43  C   UNK N   1      27.969  16.828   7.608  0.00  0.00     0.010 A 
HETATM   44  C   UNK N   1      28.120  17.669   8.714  0.00  0.00     0.037 A 
HETATM   45  C   UNK N   1      29.382  18.168   9.047  0.00  0.00     0.065 A 
HETATM   46  C   UNK N   1      30.494  17.834   8.267  0.00  0.00     0.037 A 
HETATM   47  C   UNK N   1      30.341  16.999   7.155  0.00  0.00     0.010 A 
BRANCH  45  48
HETATM   48  O   UNK N   1      29.525  18.968  10.115  0.00  0.00    -0.361 OA
HETATM   49  H   UNK N   1      30.009  18.729  10.882  0.00  0.00     0.217 HD
ENDBRANCH  45  48
ENDBRANCH  41  42
ENDBRANCH   1  41
BRANCH   1  50
HETATM   50  C   UNK N   1      27.962  16.761   3.549  0.00  0.00     0.241 C 
HETATM   51  O   UNK N   1      28.737  16.288   2.736  0.00  0.00    -0.271 OA
HETATM   52  N   UNK N   1      27.424  17.980   3.318  0.00  0.00    -0.346 N 
HETATM   53  H   UNK N   1      27.703  18.465   2.508  0.00  0.00     0.163 HD
BRANCH  52  54
HETATM   54  C   UNK N   1      26.458  18.612   4.193  0.00  0.00     0.180 C 
BRANCH  54  55
HETATM   55  C   UNK N   1      27.080  19.261   5.431  0.00  0.00     0.013 C 
HETATM   56  C   UNK N   1      28.473  19.755   5.099  0.00  0.00     0.012 C 
BRANCH  55  57
HETATM   57  C   UNK N   1      26.214  20.390   5.988  0.00  0.00     0.002 C 
HETATM   58  C   UNK N   1      27.033  21.639   6.262  0.00  0.00     0.005 C 
ENDBRANCH  55  57
ENDBRANCH  54  55
BRANCH  54  59
HETATM   59  C   UNK N   1      25.498  19.506   3.451  0.00  0.00     0.241 C 
HETATM   60  O   UNK N   1      25.934  20.522   2.935  0.00  0.00    -0.271 OA
HETATM   61  N   UNK N   1      24.167  19.248   3.370  0.00  0.00    -0.346 N 
HETATM   62  H   UNK N   1      23.597  19.887   2.882  0.00  0.00     0.163 HD
BRANCH  61  63
HETATM   63  C   UNK N   1      23.544  18.088   3.963  0.00  0.00     0.182 C 
BRANCH  63  64
HETATM   64  C   UNK N   1      23.483  18.087   5.493  0.00  0.00     0.093 C 
BRANCH  64  65
HETATM   65  C   UNK N   1      22.259  17.474   6.102  0.00  0.00     0.028 A 
HETATM   66  C   UNK N   1      22.062  16.127   6.277  0.00  0.00     0.114 A 
HETATM   67  N   UNK N   1      20.868  15.963   6.877  0.00  0.00    -0.360 N 
HETATM   68  C   UNK N   1      20.370  17.204   7.058  0.00  0.00     0.180 A 
HETATM   69  H   UNK N   1      20.444  15.111   7.129  0.00  0.00     0.166 HD
HETATM   70  N   UNK N   1      21.209  18.150   6.594  0.00  0.00    -0.354 N 
ATOM     71  HN  UNK N   1      21.075  19.161   6.612  1.00  0.00     0.166 HD
ENDBRANCH  64  65
ENDBRANCH  63  64
BRANCH  63  72
HETATM   72  C   UNK N   1      22.299  17.607   3.267  0.00  0.00     0.243 C 
HETATM   73  O   UNK N   1      22.266  16.439   2.911  0.00  0.00    -0.271 OA
HETATM   74  N   UNK N   1      21.226  18.422   3.025  0.00  0.00    -0.336 N 
HETATM   75  C   UNK N   1      21.170  19.794   3.439  0.00  0.00     0.127 C 
HETATM   76  C   UNK N   1      20.038  17.949   2.361  0.00  0.00     0.185 C 
HETATM   77  C   UNK N   1      19.815  20.303   2.989  0.00  0.00     0.022 C 
HETATM   78  C   UNK N   1      19.048  19.098   2.451  0.00  0.00     0.038 C 
BRANCH  76  79
HETATM   79  C   UNK N   1      20.290  17.598   0.916  0.00  0.00     0.163 C 
HETATM   80  O   UNK N   1      20.430  16.429   0.594  0.00  0.00    -0.648 OA
BRANCH  79  81
HETATM   81  O   UNK N   1      20.365  18.557  -0.027  0.00  0.00    -0.775 OA
HETATM   82  H   UNK N   1      19.930  19.384   0.037  0.00  0.00     0.167 HD
ENDBRANCH  79  81
ENDBRANCH  76  79
ENDBRANCH  63  72
ENDBRANCH  61  63
ENDBRANCH  54  59
ENDBRANCH  52  54
ENDBRANCH   1  50
TORSDOF 31
ENDMDL
MODEL 9
REMARK VINA RESULT:      -7.1      2.277      4.816
REMARK  31 active torsions:
REMARK  status: ('A' for Active; 'I' for Inactive)
REMARK    1  A    between atoms: C_2  and  C_3 
REMARK    2  A    between atoms: C_3  and  C_4 
REMARK    3  A    between atoms: C_4  and  C_5 
REMARK    4  A    between atoms: C_5  and  C_6 
REMARK    5  A    between atoms: C_5  and  N_47 
REMARK       I    between atoms: C_6  and  N_8 
REMARK    6  A    between atoms: C_9  and  N_8 
REMARK    7  A    between atoms: C_9  and  C_10 
REMARK    8  A    between atoms: C_9  and  C_18 
REMARK    9  A    between atoms: C_10  and  C_11 
REMARK   10  A    between atoms: C_14  and  O_17 
REMARK       I    between atoms: C_18  and  N_20 
REMARK   11  A    between atoms: C_21  and  N_20 
REMARK   12  A    between atoms: C_21  and  C_22 
REMARK   13  A    between atoms: C_21  and  C_26 
REMARK   14  A    between atoms: C_22  and  C_24 
REMARK       I    between atoms: C_26  and  N_28 
REMARK   15  A    between atoms: C_29  and  N_28 
REMARK   16  A    between atoms: C_29  and  C_30 
REMARK   17  A    between atoms: C_29  and  C_37 
REMARK   18  A    between atoms: C_30  and  C_31 
REMARK       I    between atoms: C_37  and  N_39 
REMARK   19  A    between atoms: C_43  and  C_44 
REMARK   20  A    between atoms: C_44  and  O_46 
REMARK       I    between atoms: N_47  and  C_48 
REMARK   21  A    between atoms: C_48  and  C_50 
REMARK   22  A    between atoms: C_50  and  C_51 
REMARK   23  A    between atoms: C_50  and  N_59 
REMARK   24  A    between atoms: C_51  and  C_52 
REMARK   25  A    between atoms: C_52  and  C_53 
REMARK   26  A    between atoms: C_53  and  N_54 
REMARK       I    between atoms: N_54  and  C_55 
REMARK       I    between atoms: C_55  and  N_58 
REMARK       I    between atoms: N_59  and  C_60 
REMARK   27  A    between atoms: C_60  and  C_62 
REMARK   28  A    between atoms: C_62  and  C_63 
REMARK   29  A    between atoms: C_62  and  N_67 
REMARK   30  A    between atoms: C_63  and  C_64 
REMARK   31  A    between atoms: C_64  and  O_66 
ROOT
HETATM    1  C   UNK N   1      25.944  14.931   3.472  0.00  0.00     0.180 C 
ENDROOT
BRANCH   1   2
HETATM    2  N   UNK N   1      26.852  15.969   3.888  0.00  0.00    -0.346 N 
HETATM    3  C   UNK N   1      26.395  17.122   4.417  0.00  0.00     0.241 C 
HETATM    4  O   UNK N   1      25.188  17.317   4.494  0.00  0.00    -0.271 OA
HETATM    5  H   UNK N   1      27.822  15.834   3.785  0.00  0.00     0.163 HD
BRANCH   3   6
HETATM    6  C   UNK N   1      27.359  18.117   5.012  0.00  0.00     0.176 C 
BRANCH   6   7
HETATM    7  C   UNK N   1      27.337  19.379   4.140  0.00  0.00     0.035 C 
BRANCH   7   8
HETATM    8  C   UNK N   1      27.662  20.621   4.942  0.00  0.00     0.002 C 
BRANCH   8   9
HETATM    9  C   UNK N   1      27.172  20.410   6.361  0.00  0.00    -0.004 C 
HETATM   10  C   UNK N   1      26.432  21.635   6.848  0.00  0.00     0.005 C 
ENDBRANCH   8   9
ENDBRANCH   7   8
ENDBRANCH   6   7
BRANCH   6  11
HETATM   11  N   UNK N   1      28.638  17.423   5.043  0.00  0.00    -0.346 N 
HETATM   12  C   UNK N   1      29.465  17.312   6.112  0.00  0.00     0.241 C 
HETATM   13  O   UNK N   1      29.068  17.498   7.253  0.00  0.00    -0.271 OA
HETATM   14  H   UNK N   1      28.931  16.992   4.207  0.00  0.00     0.163 HD
BRANCH  12  15
HETATM   15  C   UNK N   1      30.932  17.210   5.850  0.00  0.00     0.176 C 
BRANCH  15  16
HETATM   16  C   UNK N   1      31.331  17.663   4.446  0.00  0.00     0.036 C 
BRANCH  16  17
HETATM   17  C   UNK N   1      31.614  16.527   3.460  0.00  0.00     0.023 C 
BRANCH  17  18
HETATM   18  C   UNK N   1      33.100  16.369   3.134  0.00  0.00     0.138 C 
BRANCH  18  19
HETATM   19  N   UNK N   1      33.529  14.995   3.268  0.00  0.00    -0.227 N 
HETATM   20  C   UNK N   1      34.347  14.554   4.339  0.00  0.00     0.665 C 
HETATM   21  N   UNK N   1      34.654  13.316   4.431  0.00  0.00    -0.235 N 
HETATM   22  N   UNK N   1      34.808  15.465   5.317  0.00  0.00    -0.235 N 
HETATM   23  H   UNK N   1      35.418  13.029   4.982  0.00  0.00     0.174 HD
ATOM     24  HN  UNK N   1      34.103  12.618   3.929  1.00  0.00     0.174 HD
HETATM   25  H   UNK N   1      34.321  16.289   5.548  0.00  0.00     0.174 HD
HETATM   26  H   UNK N   1      35.650  15.268   5.785  0.00  0.00     0.174 HD
HETATM   27  H   UNK N   1      33.243  14.342   2.589  0.00  0.00     0.177 HD
ENDBRANCH  18  19
ENDBRANCH  17  18
ENDBRANCH  16  17
ENDBRANCH  15  16
BRANCH  15  28
HETATM   28  N   UNK N   1      31.311  15.835   6.100  0.00  0.00    -0.346 N 
HETATM   29  C   UNK N   1      31.831  15.383   7.268  0.00  0.00     0.241 C 
HETATM   30  O   UNK N   1      32.021  14.185   7.402  0.00  0.00    -0.271 OA
HETATM   31  H   UNK N   1      31.182  15.184   5.373  0.00  0.00     0.163 HD
BRANCH  29  32
HETATM   32  C   UNK N   1      32.168  16.321   8.399  0.00  0.00     0.177 C 
BRANCH  32  33
HETATM   33  C   UNK N   1      33.524  17.006   8.181  0.00  0.00     0.144 C 
BRANCH  33  34
HETATM   34  C   UNK N   1      34.586  16.581   9.158  0.00  0.00     0.141 C 
HETATM   35  O   UNK N   1      34.885  17.299  10.098  0.00  0.00    -0.650 OA
BRANCH  34  36
HETATM   36  O   UNK N   1      35.212  15.400   8.993  0.00  0.00    -0.776 OA
HETATM   37  H   UNK N   1      35.054  14.663   8.437  0.00  0.00     0.167 HD
ENDBRANCH  34  36
ENDBRANCH  33  34
ENDBRANCH  32  33
BRANCH  32  38
HETATM   38  N   UNK N   1      32.148  15.618   9.673  0.00  0.00    -0.418 N 
HETATM   39  H   UNK N   1      31.993  14.610   9.697  0.00  0.00     0.150 HD
HETATM   40  H   UNK N   1      32.288  16.133  10.541  0.00  0.00     0.150 HD
ENDBRANCH  32  38
ENDBRANCH  29  32
ENDBRANCH  15  28
ENDBRANCH  12  15
ENDBRANCH   6  11
ENDBRANCH   3   6
ENDBRANCH   1   2
BRANCH   1  41
HETATM   41  C   UNK N   1      26.039  14.696   1.962  0.00  0.00     0.073 C 
BRANCH  41  42
HETATM   42  C   UNK N   1      25.019  13.733   1.451  0.00  0.00    -0.056 A 
HETATM   43  C   UNK N   1      25.324  12.370   1.408  0.00  0.00     0.010 A 
HETATM   44  C   UNK N   1      24.392  11.459   0.904  0.00  0.00     0.037 A 
HETATM   45  C   UNK N   1      23.152  11.909   0.443  0.00  0.00     0.065 A 
HETATM   46  C   UNK N   1      22.846  13.273   0.477  0.00  0.00     0.037 A 
HETATM   47  C   UNK N   1      23.782  14.186   0.974  0.00  0.00     0.010 A 
BRANCH  45  48
HETATM   48  O   UNK N   1      22.256  11.031  -0.031  0.00  0.00    -0.361 OA
HETATM   49  H   UNK N   1      21.382  11.262  -0.282  0.00  0.00     0.217 HD
ENDBRANCH  45  48
ENDBRANCH  41  42
ENDBRANCH   1  41
BRANCH   1  50
HETATM   50  C   UNK N   1      26.171  13.723   4.322  0.00  0.00     0.241 C 
HETATM   51  O   UNK N   1      27.282  13.222   4.345  0.00  0.00    -0.271 OA
HETATM   52  N   UNK N   1      25.173  13.149   5.031  0.00  0.00    -0.346 N 
HETATM   53  H   UNK N   1      25.370  12.318   5.522  0.00  0.00     0.163 HD
BRANCH  52  54
HETATM   54  C   UNK N   1      23.830  13.687   5.111  0.00  0.00     0.180 C 
BRANCH  54  55
HETATM   55  C   UNK N   1      22.756  12.628   5.366  0.00  0.00     0.013 C 
HETATM   56  C   UNK N   1      22.197  12.144   4.044  0.00  0.00     0.012 C 
BRANCH  55  57
HETATM   57  C   UNK N   1      23.282  11.462   6.200  0.00  0.00     0.002 C 
HETATM   58  C   UNK N   1      22.946  11.629   7.671  0.00  0.00     0.005 C 
ENDBRANCH  55  57
ENDBRANCH  54  55
BRANCH  54  59
HETATM   59  C   UNK N   1      23.737  14.886   6.019  0.00  0.00     0.241 C 
HETATM   60  O   UNK N   1      24.613  15.050   6.853  0.00  0.00    -0.271 OA
HETATM   61  N   UNK N   1      22.700  15.761   5.976  0.00  0.00    -0.346 N 
HETATM   62  H   UNK N   1      22.698  16.513   6.613  0.00  0.00     0.163 HD
BRANCH  61  63
HETATM   63  C   UNK N   1      21.601  15.648   5.046  0.00  0.00     0.182 C 
BRANCH  63  64
HETATM   64  C   UNK N   1      20.315  15.049   5.622  0.00  0.00     0.093 C 
BRANCH  64  65
HETATM   65  C   UNK N   1      20.085  15.265   7.086  0.00  0.00     0.028 A 
HETATM   66  C   UNK N   1      20.485  14.403   8.077  0.00  0.00     0.114 A 
HETATM   67  N   UNK N   1      20.131  14.944   9.257  0.00  0.00    -0.360 N 
HETATM   68  C   UNK N   1      19.533  16.118   8.963  0.00  0.00     0.180 A 
HETATM   69  H   UNK N   1      20.276  14.560  10.153  0.00  0.00     0.166 HD
HETATM   70  N   UNK N   1      19.497  16.339   7.635  0.00  0.00    -0.354 N 
ATOM     71  HN  UNK N   1      19.106  17.147   7.151  1.00  0.00     0.166 HD
ENDBRANCH  64  65
ENDBRANCH  63  64
BRANCH  63  72
HETATM   72  C   UNK N   1      21.410  16.832   4.137  0.00  0.00     0.243 C 
HETATM   73  O   UNK N   1      21.752  17.928   4.556  0.00  0.00    -0.271 OA
HETATM   74  N   UNK N   1      20.875  16.721   2.882  0.00  0.00    -0.336 N 
HETATM   75  C   UNK N   1      20.480  15.470   2.302  0.00  0.00     0.127 C 
HETATM   76  C   UNK N   1      20.701  17.862   2.019  0.00  0.00     0.185 C 
HETATM   77  C   UNK N   1      19.968  15.805   0.916  0.00  0.00     0.022 C 
HETATM   78  C   UNK N   1      20.253  17.286   0.686  0.00  0.00     0.038 C 
BRANCH  76  79
HETATM   79  C   UNK N   1      19.662  18.823   2.542  0.00  0.00     0.163 C 
HETATM   80  O   UNK N   1      20.008  19.914   2.963  0.00  0.00    -0.648 OA
BRANCH  79  81
HETATM   81  O   UNK N   1      18.356  18.493   2.551  0.00  0.00    -0.775 OA
HETATM   82  H   UNK N   1      17.988  17.809   2.026  0.00  0.00     0.167 HD
ENDBRANCH  79  81
ENDBRANCH  76  79
ENDBRANCH  63  72
ENDBRANCH  61  63
ENDBRANCH  54  59
ENDBRANCH  52  54
ENDBRANCH   1  50
TORSDOF 31
ENDMDL
