MODEL 1
REMARK VINA RESULT:      -7.3      0.000      0.000
REMARK  1 active torsions:
REMARK  status: ('A' for Active; 'I' for Inactive)
REMARK    1  A    between atoms: C_10  and  O_13 
ROOT
HETATM    1  C   UNK N   1      30.152  23.158  -2.230  0.00  0.00     0.020 C 
HETATM    2  C   UNK N   1      30.370  23.668  -3.653  0.00  0.00     0.003 C 
HETATM    3  C   UNK N   1      30.302  25.206  -3.525  0.00  0.00     0.014 C 
HETATM    4  C   UNK N   1      30.063  25.936  -4.843  0.00  0.00     0.006 C 
HETATM    5  C   UNK N   1      28.760  25.467  -5.487  0.00  0.00    -0.002 C 
HETATM    6  C   UNK N   1      28.901  23.978  -5.797  0.00  0.00    -0.005 C 
HETATM    7  C   UNK N   1      29.234  23.109  -4.554  0.00  0.00     0.002 C 
HETATM    8  C   UNK N   1      29.870  21.868  -5.142  0.00  0.00     0.010 C 
HETATM    9  C   UNK N   1      31.248  22.390  -5.528  0.00  0.00     0.052 C 
HETATM   10  C   UNK N   1      31.699  23.096  -4.271  0.00  0.00     0.128 C 
HETATM   11  C   UNK N   1      32.385  22.027  -3.513  0.00  0.00    -0.078 C 
HETATM   12  C   UNK N   1      32.995  21.145  -2.961  0.00  0.00     0.015 C 
HETATM   13  C   UNK N   1      27.662  23.448  -6.539  0.00  0.00     0.009 C 
HETATM   14  C   UNK N   1      26.390  23.664  -5.717  0.00  0.00     0.034 C 
HETATM   15  C   UNK N   1      26.312  25.104  -5.321  0.00  0.00    -0.079 C 
HETATM   16  C   UNK N   1      25.235  25.828  -5.660  0.00  0.00    -0.024 C 
HETATM   17  C   UNK N   1      25.124  27.292  -5.335  0.00  0.00     0.027 C 
HETATM   18  C   UNK N   1      26.503  27.937  -5.264  0.00  0.00     0.004 C 
HETATM   19  C   UNK N   1      27.338  27.188  -4.237  0.00  0.00     0.010 C 
HETATM   20  C   UNK N   1      27.515  25.710  -4.616  0.00  0.00     0.019 C 
ENDROOT
BRANCH  10  21
HETATM   21  O   UNK N   1      32.623  24.104  -4.562  0.00  0.00    -0.377 OA
HETATM   22  H   UNK N   1      33.536  24.119  -4.890  0.00  0.00     0.211 HD
ENDBRANCH  10  21
TORSDOF 1
ENDMDL
MODEL 2
REMARK VINA RESULT:      -7.2     21.103     25.094
REMARK  1 active torsions:
REMARK  status: ('A' for Active; 'I' for Inactive)
REMARK    1  A    between atoms: C_10  and  O_13 
ROOT
HETATM    1  C   UNK N   1      33.813  10.438  13.151  0.00  0.00     0.020 C 
HETATM    2  C   UNK N   1      35.228  10.878  13.521  0.00  0.00     0.003 C 
HETATM    3  C   UNK N   1      35.781   9.716  14.375  0.00  0.00     0.014 C 
HETATM    4  C   UNK N   1      37.000  10.080  15.218  0.00  0.00     0.006 C 
HETATM    5  C   UNK N   1      36.673  11.235  16.161  0.00  0.00    -0.002 C 
HETATM    6  C   UNK N   1      36.315  12.451  15.308  0.00  0.00    -0.005 C 
HETATM    7  C   UNK N   1      35.136  12.202  14.329  0.00  0.00     0.002 C 
HETATM    8  C   UNK N   1      35.332  13.249  13.255  0.00  0.00     0.010 C 
HETATM    9  C   UNK N   1      36.504  12.667  12.476  0.00  0.00     0.052 C 
HETATM   10  C   UNK N   1      36.070  11.239  12.241  0.00  0.00     0.128 C 
HETATM   11  C   UNK N   1      35.338  11.319  10.958  0.00  0.00    -0.078 C 
HETATM   12  C   UNK N   1      34.809  11.416   9.878  0.00  0.00     0.015 C 
HETATM   13  C   UNK N   1      36.066  13.688  16.187  0.00  0.00     0.009 C 
HETATM   14  C   UNK N   1      34.937  13.438  17.189  0.00  0.00     0.034 C 
HETATM   15  C   UNK N   1      35.237  12.184  17.948  0.00  0.00    -0.079 C 
HETATM   16  C   UNK N   1      35.312  12.222  19.287  0.00  0.00    -0.024 C 
HETATM   17  C   UNK N   1      35.663  11.005  20.099  0.00  0.00     0.027 C 
HETATM   18  C   UNK N   1      36.541  10.053  19.297  0.00  0.00     0.004 C 
HETATM   19  C   UNK N   1      35.816   9.689  18.011  0.00  0.00     0.010 C 
HETATM   20  C   UNK N   1      35.532  10.927  17.147  0.00  0.00     0.019 C 
ENDROOT
BRANCH  10  21
HETATM   21  O   UNK N   1      37.172  10.396  12.077  0.00  0.00    -0.377 OA
HETATM   22  H   UNK N   1      38.031  10.303  12.518  0.00  0.00     0.211 HD
ENDBRANCH  10  21
TORSDOF 1
ENDMDL
MODEL 3
REMARK VINA RESULT:      -6.8     11.308     13.591
REMARK  1 active torsions:
REMARK  status: ('A' for Active; 'I' for Inactive)
REMARK    1  A    between atoms: C_10  and  O_13 
ROOT
HETATM    1  C   UNK N   1      32.736  17.343   5.755  0.00  0.00     0.020 C 
HETATM    2  C   UNK N   1      31.604  16.562   6.419  0.00  0.00     0.003 C 
HETATM    3  C   UNK N   1      30.875  15.870   5.246  0.00  0.00     0.014 C 
HETATM    4  C   UNK N   1      29.469  15.380   5.581  0.00  0.00     0.006 C 
HETATM    5  C   UNK N   1      28.595  16.540   6.051  0.00  0.00    -0.002 C 
HETATM    6  C   UNK N   1      29.211  17.102   7.331  0.00  0.00    -0.005 C 
HETATM    7  C   UNK N   1      30.683  17.567   7.165  0.00  0.00     0.002 C 
HETATM    8  C   UNK N   1      31.235  17.527   8.573  0.00  0.00     0.010 C 
HETATM    9  C   UNK N   1      31.409  16.028   8.785  0.00  0.00     0.052 C 
HETATM   10  C   UNK N   1      32.149  15.601   7.540  0.00  0.00     0.128 C 
HETATM   11  C   UNK N   1      33.569  15.758   7.924  0.00  0.00    -0.078 C 
HETATM   12  C   UNK N   1      34.713  15.833   8.300  0.00  0.00     0.015 C 
HETATM   13  C   UNK N   1      28.332  18.217   7.923  0.00  0.00     0.009 C 
HETATM   14  C   UNK N   1      28.138  19.359   6.924  0.00  0.00     0.034 C 
HETATM   15  C   UNK N   1      27.639  18.791   5.634  0.00  0.00    -0.079 C 
HETATM   16  C   UNK N   1      26.483  19.234   5.117  0.00  0.00    -0.024 C 
HETATM   17  C   UNK N   1      25.905  18.662   3.852  0.00  0.00     0.027 C 
HETATM   18  C   UNK N   1      26.333  17.212   3.667  0.00  0.00     0.004 C 
HETATM   19  C   UNK N   1      27.853  17.148   3.679  0.00  0.00     0.010 C 
HETATM   20  C   UNK N   1      28.434  17.658   5.006  0.00  0.00     0.019 C 
ENDROOT
BRANCH  10  21
HETATM   21  O   UNK N   1      31.909  14.256   7.247  0.00  0.00    -0.377 OA
HETATM   22  H   UNK N   1      31.910  13.434   7.762  0.00  0.00     0.211 HD
ENDBRANCH  10  21
TORSDOF 1
ENDMDL
MODEL 4
REMARK VINA RESULT:      -6.7     11.728     13.829
REMARK  1 active torsions:
REMARK  status: ('A' for Active; 'I' for Inactive)
REMARK    1  A    between atoms: C_10  and  O_13 
ROOT
HETATM    1  C   UNK N   1      32.533  14.774   8.092  0.00  0.00     0.020 C 
HETATM    2  C   UNK N   1      32.200  16.181   7.597  0.00  0.00     0.003 C 
HETATM    3  C   UNK N   1      30.672  16.301   7.779  0.00  0.00     0.014 C 
HETATM    4  C   UNK N   1      30.030  17.429   6.977  0.00  0.00     0.006 C 
HETATM    5  C   UNK N   1      30.307  17.251   5.486  0.00  0.00    -0.002 C 
HETATM    6  C   UNK N   1      31.818  17.330   5.278  0.00  0.00    -0.005 C 
HETATM    7  C   UNK N   1      32.619  16.289   6.105  0.00  0.00     0.002 C 
HETATM    8  C   UNK N   1      34.003  16.893   6.201  0.00  0.00     0.010 C 
HETATM    9  C   UNK N   1      33.781  17.995   7.229  0.00  0.00     0.052 C 
HETATM   10  C   UNK N   1      33.060  17.269   8.342  0.00  0.00     0.128 C 
HETATM   11  C   UNK N   1      34.166  16.781   9.195  0.00  0.00    -0.078 C 
HETATM   12  C   UNK N   1      35.092  16.463   9.899  0.00  0.00     0.015 C 
HETATM   13  C   UNK N   1      32.174  17.257   3.783  0.00  0.00     0.009 C 
HETATM   14  C   UNK N   1      31.656  15.962   3.154  0.00  0.00     0.034 C 
HETATM   15  C   UNK N   1      30.196  15.832   3.454  0.00  0.00    -0.079 C 
HETATM   16  C   UNK N   1      29.319  15.710   2.446  0.00  0.00    -0.024 C 
HETATM   17  C   UNK N   1      27.837  15.630   2.685  0.00  0.00     0.027 C 
HETATM   18  C   UNK N   1      27.453  16.363   3.964  0.00  0.00     0.004 C 
HETATM   19  C   UNK N   1      28.249  15.775   5.119  0.00  0.00     0.010 C 
HETATM   20  C   UNK N   1      29.762  15.933   4.907  0.00  0.00     0.019 C 
ENDROOT
BRANCH  10  21
HETATM   21  O   UNK N   1      32.270  18.147   9.089  0.00  0.00    -0.377 OA
HETATM   22  H   UNK N   1      31.970  19.062   8.972  0.00  0.00     0.211 HD
ENDBRANCH  10  21
TORSDOF 1
ENDMDL
MODEL 5
REMARK VINA RESULT:      -6.6     21.665     24.563
REMARK  1 active torsions:
REMARK  status: ('A' for Active; 'I' for Inactive)
REMARK    1  A    between atoms: C_10  and  O_13 
ROOT
HETATM    1  C   UNK N   1      37.667  11.531  12.816  0.00  0.00     0.020 C 
HETATM    2  C   UNK N   1      36.171  11.595  13.116  0.00  0.00     0.003 C 
HETATM    3  C   UNK N   1      35.958  13.004  13.712  0.00  0.00     0.014 C 
HETATM    4  C   UNK N   1      34.652  13.170  14.483  0.00  0.00     0.006 C 
HETATM    5  C   UNK N   1      34.575  12.165  15.629  0.00  0.00    -0.002 C 
HETATM    6  C   UNK N   1      34.585  10.762  15.024  0.00  0.00    -0.005 C 
HETATM    7  C   UNK N   1      35.825  10.474  14.135  0.00  0.00     0.002 C 
HETATM    8  C   UNK N   1      35.367   9.349  13.233  0.00  0.00     0.010 C 
HETATM    9  C   UNK N   1      34.459  10.091  12.261  0.00  0.00     0.052 C 
HETATM   10  C   UNK N   1      35.314  11.263  11.838  0.00  0.00     0.128 C 
HETATM   11  C   UNK N   1      36.042  10.739  10.662  0.00  0.00    -0.078 C 
HETATM   12  C   UNK N   1      36.562  10.296   9.667  0.00  0.00     0.015 C 
HETATM   13  C   UNK N   1      34.412   9.690  16.113  0.00  0.00     0.009 C 
HETATM   14  C   UNK N   1      35.520   9.784  17.164  0.00  0.00     0.034 C 
HETATM   15  C   UNK N   1      35.580  11.187  17.676  0.00  0.00    -0.079 C 
HETATM   16  C   UNK N   1      35.440  11.422  18.990  0.00  0.00    -0.024 C 
HETATM   17  C   UNK N   1      35.439  12.815  19.555  0.00  0.00     0.027 C 
HETATM   18  C   UNK N   1      34.924  13.816  18.527  0.00  0.00     0.004 C 
HETATM   19  C   UNK N   1      35.779  13.711  17.274  0.00  0.00     0.010 C 
HETATM   20  C   UNK N   1      35.712  12.306  16.656  0.00  0.00     0.019 C 
ENDROOT
BRANCH  10  21
HETATM   21  O   UNK N   1      34.526  12.343  11.434  0.00  0.00    -0.377 OA
HETATM   22  H   UNK N   1      33.661  12.434  11.004  0.00  0.00     0.211 HD
ENDBRANCH  10  21
TORSDOF 1
ENDMDL
MODEL 6
REMARK VINA RESULT:      -6.5      1.553      2.619
REMARK  1 active torsions:
REMARK  status: ('A' for Active; 'I' for Inactive)
REMARK    1  A    between atoms: C_10  and  O_13 
ROOT
HETATM    1  C   UNK N   1      31.955  23.935  -4.894  0.00  0.00     0.020 C 
HETATM    2  C   UNK N   1      30.695  23.077  -4.800  0.00  0.00     0.003 C 
HETATM    3  C   UNK N   1      30.167  23.008  -6.249  0.00  0.00     0.014 C 
HETATM    4  C   UNK N   1      28.707  22.579  -6.367  0.00  0.00     0.006 C 
HETATM    5  C   UNK N   1      27.804  23.531  -5.589  0.00  0.00    -0.002 C 
HETATM    6  C   UNK N   1      28.197  23.451  -4.115  0.00  0.00    -0.005 C 
HETATM    7  C   UNK N   1      29.690  23.782  -3.847  0.00  0.00     0.002 C 
HETATM    8  C   UNK N   1      29.975  23.109  -2.522  0.00  0.00     0.010 C 
HETATM    9  C   UNK N   1      30.056  21.646  -2.938  0.00  0.00     0.052 C 
HETATM   10  C   UNK N   1      30.995  21.688  -4.121  0.00  0.00     0.128 C 
HETATM   11  C   UNK N   1      32.326  21.521  -3.498  0.00  0.00    -0.078 C 
HETATM   12  C   UNK N   1      33.385  21.312  -2.959  0.00  0.00     0.015 C 
HETATM   13  C   UNK N   1      27.264  24.313  -3.247  0.00  0.00     0.009 C 
HETATM   14  C   UNK N   1      27.295  25.777  -3.687  0.00  0.00     0.034 C 
HETATM   15  C   UNK N   1      27.018  25.844  -5.156  0.00  0.00    -0.079 C 
HETATM   16  C   UNK N   1      25.991  26.582  -5.604  0.00  0.00    -0.024 C 
HETATM   17  C   UNK N   1      25.633  26.644  -7.064  0.00  0.00     0.027 C 
HETATM   18  C   UNK N   1      26.036  25.359  -7.776  0.00  0.00     0.004 C 
HETATM   19  C   UNK N   1      27.526  25.133  -7.565  0.00  0.00     0.010 C 
HETATM   20  C   UNK N   1      27.874  24.989  -6.076  0.00  0.00     0.019 C 
ENDROOT
BRANCH  10  21
HETATM   21  O   UNK N   1      30.765  20.616  -4.986  0.00  0.00    -0.377 OA
HETATM   22  H   UNK N   1      30.022  20.335  -5.543  0.00  0.00     0.211 HD
ENDBRANCH  10  21
TORSDOF 1
ENDMDL
MODEL 7
REMARK VINA RESULT:      -6.4     19.433     22.900
REMARK  1 active torsions:
REMARK  status: ('A' for Active; 'I' for Inactive)
REMARK    1  A    between atoms: C_10  and  O_13 
ROOT
HETATM    1  C   UNK N   1      38.055  12.189  11.260  0.00  0.00     0.020 C 
HETATM    2  C   UNK N   1      36.583  12.533  11.483  0.00  0.00     0.003 C 
HETATM    3  C   UNK N   1      36.610  13.702  12.491  0.00  0.00     0.014 C 
HETATM    4  C   UNK N   1      35.283  13.949  13.202  0.00  0.00     0.006 C 
HETATM    5  C   UNK N   1      34.837  12.698  13.955  0.00  0.00    -0.002 C 
HETATM    6  C   UNK N   1      34.617  11.587  12.929  0.00  0.00    -0.005 C 
HETATM    7  C   UNK N   1      35.869  11.280  12.063  0.00  0.00     0.002 C 
HETATM    8  C   UNK N   1      35.297  10.632  10.821  0.00  0.00     0.010 C 
HETATM    9  C   UNK N   1      34.709  11.835  10.095  0.00  0.00     0.052 C 
HETATM   10  C   UNK N   1      35.849  12.827  10.122  0.00  0.00     0.128 C 
HETATM   11  C   UNK N   1      36.591  12.517   8.880  0.00  0.00    -0.078 C 
HETATM   12  C   UNK N   1      37.126  12.280   7.825  0.00  0.00     0.015 C 
HETATM   13  C   UNK N   1      34.071  10.316  13.600  0.00  0.00     0.009 C 
HETATM   14  C   UNK N   1      35.026   9.808  14.683  0.00  0.00     0.034 C 
HETATM   15  C   UNK N   1      35.326  10.930  15.625  0.00  0.00    -0.079 C 
HETATM   16  C   UNK N   1      35.070  10.784  16.934  0.00  0.00    -0.024 C 
HETATM   17  C   UNK N   1      35.302  11.896  17.920  0.00  0.00     0.027 C 
HETATM   18  C   UNK N   1      35.159  13.256  17.246  0.00  0.00     0.004 C 
HETATM   19  C   UNK N   1      36.126  13.323  16.075  0.00  0.00     0.010 C 
HETATM   20  C   UNK N   1      35.834  12.234  15.031  0.00  0.00     0.019 C 
ENDROOT
BRANCH  10  21
HETATM   21  O   UNK N   1      35.378  14.140  10.048  0.00  0.00    -0.377 OA
HETATM   22  H   UNK N   1      34.532  14.574  10.245  0.00  0.00     0.211 HD
ENDBRANCH  10  21
TORSDOF 1
ENDMDL
MODEL 8
REMARK VINA RESULT:      -6.3     11.889     14.666
REMARK  1 active torsions:
REMARK  status: ('A' for Active; 'I' for Inactive)
REMARK    1  A    between atoms: C_10  and  O_13 
ROOT
HETATM    1  C   UNK N   1      28.169  15.354   5.132  0.00  0.00     0.020 C 
HETATM    2  C   UNK N   1      28.995  16.625   5.316  0.00  0.00     0.003 C 
HETATM    3  C   UNK N   1      30.177  16.462   4.335  0.00  0.00     0.014 C 
HETATM    4  C   UNK N   1      31.364  17.376   4.623  0.00  0.00     0.006 C 
HETATM    5  C   UNK N   1      31.896  17.135   6.033  0.00  0.00    -0.002 C 
HETATM    6  C   UNK N   1      30.785  17.489   7.020  0.00  0.00    -0.005 C 
HETATM    7  C   UNK N   1      29.472  16.692   6.794  0.00  0.00     0.002 C 
HETATM    8  C   UNK N   1      28.410  17.558   7.436  0.00  0.00     0.010 C 
HETATM    9  C   UNK N   1      28.270  18.675   6.410  0.00  0.00     0.052 C 
HETATM   10  C   UNK N   1      28.118  17.916   5.113  0.00  0.00     0.128 C 
HETATM   11  C   UNK N   1      26.655  17.722   5.008  0.00  0.00    -0.078 C 
HETATM   12  C   UNK N   1      25.454  17.646   4.927  0.00  0.00     0.015 C 
HETATM   13  C   UNK N   1      31.276  17.365   8.473  0.00  0.00     0.009 C 
HETATM   14  C   UNK N   1      31.770  15.948   8.771  0.00  0.00     0.034 C 
HETATM   15  C   UNK N   1      32.779  15.563   7.737  0.00  0.00    -0.079 C 
HETATM   16  C   UNK N   1      34.012  15.193   8.117  0.00  0.00    -0.024 C 
HETATM   17  C   UNK N   1      35.083  14.846   7.120  0.00  0.00     0.027 C 
HETATM   18  C   UNK N   1      34.866  15.593   5.810  0.00  0.00     0.004 C 
HETATM   19  C   UNK N   1      33.475  15.265   5.288  0.00  0.00     0.010 C 
HETATM   20  C   UNK N   1      32.380  15.695   6.276  0.00  0.00     0.019 C 
ENDROOT
BRANCH  10  21
HETATM   21  O   UNK N   1      28.548  18.682   4.026  0.00  0.00    -0.377 OA
HETATM   22  H   UNK N   1      28.407  18.645   3.067  0.00  0.00     0.211 HD
ENDBRANCH  10  21
TORSDOF 1
ENDMDL
MODEL 9
REMARK VINA RESULT:      -6.2     11.469     15.757
REMARK  1 active torsions:
REMARK  status: ('A' for Active; 'I' for Inactive)
REMARK    1  A    between atoms: C_10  and  O_13 
ROOT
HETATM    1  C   UNK N   1      31.012  14.445   5.455  0.00  0.00     0.020 C 
HETATM    2  C   UNK N   1      32.281  15.208   5.079  0.00  0.00     0.003 C 
HETATM    3  C   UNK N   1      33.395  14.140   5.109  0.00  0.00     0.014 C 
HETATM    4  C   UNK N   1      34.809  14.708   5.191  0.00  0.00     0.006 C 
HETATM    5  C   UNK N   1      34.966  15.577   6.436  0.00  0.00    -0.002 C 
HETATM    6  C   UNK N   1      33.997  16.752   6.313  0.00  0.00    -0.005 C 
HETATM    7  C   UNK N   1      32.515  16.324   6.136  0.00  0.00     0.002 C 
HETATM    8  C   UNK N   1      31.868  17.526   5.484  0.00  0.00     0.010 C 
HETATM    9  C   UNK N   1      32.392  17.414   4.058  0.00  0.00     0.052 C 
HETATM   10  C   UNK N   1      32.109  15.971   3.713  0.00  0.00     0.128 C 
HETATM   11  C   UNK N   1      30.745  16.023   3.142  0.00  0.00    -0.078 C 
HETATM   12  C   UNK N   1      29.661  16.120   2.621  0.00  0.00     0.015 C 
HETATM   13  C   UNK N   1      34.164  17.731   7.487  0.00  0.00     0.009 C 
HETATM   14  C   UNK N   1      33.927  17.033   8.828  0.00  0.00     0.034 C 
HETATM   15  C   UNK N   1      34.799  15.820   8.899  0.00  0.00    -0.079 C 
HETATM   16  C   UNK N   1      35.668  15.685   9.913  0.00  0.00    -0.024 C 
HETATM   17  C   UNK N   1      36.606  14.514  10.007  0.00  0.00     0.027 C 
HETATM   18  C   UNK N   1      36.937  13.971   8.623  0.00  0.00     0.004 C 
HETATM   19  C   UNK N   1      35.639  13.605   7.920  0.00  0.00     0.010 C 
HETATM   20  C   UNK N   1      34.718  14.823   7.754  0.00  0.00     0.019 C 
ENDROOT
BRANCH  10  21
HETATM   21  O   UNK N   1      32.988  15.504   2.732  0.00  0.00    -0.377 OA
HETATM   22  H   UNK N   1      33.891  15.732   2.461  0.00  0.00     0.211 HD
ENDBRANCH  10  21
TORSDOF 1
ENDMDL
