MODEL 1
REMARK VINA RESULT:      -8.0      0.000      0.000
REMARK  17 active torsions:
REMARK  status: ('A' for Active; 'I' for Inactive)
REMARK    1  A    between atoms: C_2  and  C_3 
REMARK    2  A    between atoms: C_3  and  C_4 
REMARK    3  A    between atoms: C_4  and  C_5 
REMARK    4  A    between atoms: C_5  and  C_45 
REMARK    5  A    between atoms: N_7  and  C_39 
REMARK    6  A    between atoms: C_10  and  S_37 
REMARK    7  A    between atoms: C_11  and  O_18 
REMARK    8  A    between atoms: O_18  and  C_19 
REMARK    9  A    between atoms: C_19  and  C_20 
REMARK       I    between atoms: C_20  and  N_22 
REMARK   10  A    between atoms: C_23  and  N_22 
REMARK   11  A    between atoms: C_23  and  C_24 
REMARK   12  A    between atoms: C_23  and  C_30 
REMARK       I    between atoms: C_30  and  N_32 
REMARK   13  A    between atoms: N_32  and  C_33 
REMARK   14  A    between atoms: C_33  and  C_34 
REMARK   15  A    between atoms: C_34  and  O_36 
REMARK   16  A    between atoms: C_45  and  C_46 
REMARK   17  A    between atoms: C_46  and  C_47 
ROOT
HETATM    1  C   UNK N   1      21.477  14.820   6.481  0.00  0.00    -0.011 C 
HETATM    2  C   UNK N   1      21.146  16.087   5.661  0.00  0.00     0.140 C 
HETATM    3  N   UNK N   1      21.899  16.287   4.440  0.00  0.00    -0.345 N 
HETATM    4  C   UNK N   1      23.252  16.762   4.522  0.00  0.00     0.058 A 
HETATM    5  C   UNK N   1      23.531  18.028   4.006  0.00  0.00     0.052 A 
HETATM    6  C   UNK N   1      24.834  18.493   3.922  0.00  0.00     0.035 A 
HETATM    7  C   UNK N   1      25.874  17.655   4.337  0.00  0.00     0.087 A 
HETATM    8  C   UNK N   1      25.607  16.424   4.901  0.00  0.00     0.064 A 
HETATM    9  C   UNK N   1      24.306  15.962   5.019  0.00  0.00     0.088 A 
HETATM   10  S   UNK N   1      24.054  14.317   5.636  0.00  0.00     0.178 S 
HETATM   11  O   UNK N   1      25.516  13.840   5.718  0.00  0.00    -0.223 OA
HETATM   12  O   UNK N   1      24.542  14.729   7.034  0.00  0.00    -0.223 OA
HETATM   13  C   UNK N   1      22.927  14.825   6.934  0.00  0.00     0.157 C 
ENDROOT
BRANCH   7  14
HETATM   14  O   UNK N   1      27.141  17.978   4.096  0.00  0.00    -0.341 OA
BRANCH  14  15
HETATM   15  C   UNK N   1      27.967  16.989   3.607  0.00  0.00     0.278 C 
BRANCH  15  16
HETATM   16  C   UNK N   1      28.957  16.664   4.657  0.00  0.00     0.242 C 
HETATM   17  O   UNK N   1      29.021  15.524   5.087  0.00  0.00    -0.271 OA
HETATM   18  N   UNK N   1      29.542  17.690   5.316  0.00  0.00    -0.342 N 
HETATM   19  H   UNK N   1      29.832  18.492   4.823  0.00  0.00     0.163 HD
BRANCH  18  20
HETATM   20  C   UNK N   1      29.738  17.608   6.724  0.00  0.00     0.210 C 
BRANCH  20  21
HETATM   21  C   UNK N   1      31.191  17.410   7.025  0.00  0.00    -0.026 A 
HETATM   22  C   UNK N   1      31.671  17.736   8.298  0.00  0.00     0.010 A 
HETATM   23  C   UNK N   1      33.040  17.886   8.524  0.00  0.00     0.001 A 
HETATM   24  C   UNK N   1      33.939  17.752   7.464  0.00  0.00     0.000 A 
HETATM   25  C   UNK N   1      33.469  17.452   6.182  0.00  0.00     0.001 A 
HETATM   26  C   UNK N   1      32.097  17.301   5.958  0.00  0.00     0.010 A 
ENDBRANCH  20  21
BRANCH  20  27
HETATM   27  C   UNK N   1      28.528  17.679   7.614  0.00  0.00     0.245 C 
HETATM   28  O   UNK N   1      28.281  16.743   8.356  0.00  0.00    -0.271 OA
HETATM   29  N   UNK N   1      27.697  18.746   7.601  0.00  0.00    -0.349 N 
HETATM   30  H   UNK N   1      26.889  18.722   8.162  0.00  0.00     0.163 HD
BRANCH  29  31
HETATM   31  C   UNK N   1      27.946  19.914   6.798  0.00  0.00     0.232 C 
BRANCH  31  32
HETATM   32  C   UNK N   1      26.799  20.855   6.963  0.00  0.00     0.158 C 
HETATM   33  O   UNK N   1      26.535  21.655   6.082  0.00  0.00    -0.649 OA
BRANCH  32  34
HETATM   34  O   UNK N   1      26.034  20.801   8.069  0.00  0.00    -0.775 OA
HETATM   35  H   UNK N   1      25.206  21.237   8.132  0.00  0.00     0.167 HD
ENDBRANCH  32  34
ENDBRANCH  31  32
ENDBRANCH  29  31
ENDBRANCH  20  27
ENDBRANCH  18  20
ENDBRANCH  15  16
ENDBRANCH  14  15
ENDBRANCH   7  14
BRANCH   6  36
HETATM   36  S   UNK N   1      25.135  20.087   3.163  0.00  0.00    -0.132 SA
HETATM   37  C   UNK N   1      23.360  20.411   2.927  0.00  0.00     0.095 C 
ENDBRANCH   6  36
BRANCH   3  38
HETATM   38  C   UNK N   1      21.218  16.453   3.179  0.00  0.00     0.034 A 
HETATM   39  C   UNK N   1      20.414  17.582   2.929  0.00  0.00     0.029 A 
HETATM   40  C   UNK N   1      19.785  17.738   1.687  0.00  0.00     0.002 A 
HETATM   41  C   UNK N   1      19.940  16.774   0.687  0.00  0.00     0.000 A 
HETATM   42  C   UNK N   1      20.720  15.643   0.927  0.00  0.00     0.002 A 
HETATM   43  C   UNK N   1      21.351  15.489   2.160  0.00  0.00     0.029 A 
ENDBRANCH   3  38
BRANCH   1  44
HETATM   44  C   UNK N   1      20.629  14.886   7.760  0.00  0.00     0.012 C 
BRANCH  44  45
HETATM   45  C   UNK N   1      21.444  14.671   9.042  0.00  0.00     0.000 C 
BRANCH  45  46
HETATM   46  C   UNK N   1      20.749  13.679   9.967  0.00  0.00    -0.005 C 
HETATM   47  C   UNK N   1      21.770  12.730  10.567  0.00  0.00     0.005 C 
ENDBRANCH  45  46
ENDBRANCH  44  45
ENDBRANCH   1  44
BRANCH   1  48
HETATM   48  C   UNK N   1      21.185  13.509   5.719  0.00  0.00     0.012 C 
BRANCH  48  49
HETATM   49  C   UNK N   1      20.950  12.281   6.585  0.00  0.00     0.000 C 
BRANCH  49  50
HETATM   50  C   UNK N   1      21.961  11.195   6.303  0.00  0.00    -0.005 C 
HETATM   51  C   UNK N   1      22.976  11.182   7.424  0.00  0.00     0.005 C 
ENDBRANCH  49  50
ENDBRANCH  48  49
ENDBRANCH   1  48
TORSDOF 17
ENDMDL
MODEL 2
REMARK VINA RESULT:      -7.8      4.853      8.741
REMARK  17 active torsions:
REMARK  status: ('A' for Active; 'I' for Inactive)
REMARK    1  A    between atoms: C_2  and  C_3 
REMARK    2  A    between atoms: C_3  and  C_4 
REMARK    3  A    between atoms: C_4  and  C_5 
REMARK    4  A    between atoms: C_5  and  C_45 
REMARK    5  A    between atoms: N_7  and  C_39 
REMARK    6  A    between atoms: C_10  and  S_37 
REMARK    7  A    between atoms: C_11  and  O_18 
REMARK    8  A    between atoms: O_18  and  C_19 
REMARK    9  A    between atoms: C_19  and  C_20 
REMARK       I    between atoms: C_20  and  N_22 
REMARK   10  A    between atoms: C_23  and  N_22 
REMARK   11  A    between atoms: C_23  and  C_24 
REMARK   12  A    between atoms: C_23  and  C_30 
REMARK       I    between atoms: C_30  and  N_32 
REMARK   13  A    between atoms: N_32  and  C_33 
REMARK   14  A    between atoms: C_33  and  C_34 
REMARK   15  A    between atoms: C_34  and  O_36 
REMARK   16  A    between atoms: C_45  and  C_46 
REMARK   17  A    between atoms: C_46  and  C_47 
ROOT
HETATM    1  C   UNK N   1      27.928  18.797   5.679  0.00  0.00    -0.011 C 
HETATM    2  C   UNK N   1      28.936  18.096   4.742  0.00  0.00     0.140 C 
HETATM    3  N   UNK N   1      29.418  16.795   5.159  0.00  0.00    -0.345 N 
HETATM    4  C   UNK N   1      30.411  16.716   6.194  0.00  0.00     0.058 A 
HETATM    5  C   UNK N   1      31.674  16.233   5.850  0.00  0.00     0.052 A 
HETATM    6  C   UNK N   1      32.636  15.996   6.819  0.00  0.00     0.035 A 
HETATM    7  C   UNK N   1      32.308  16.221   8.160  0.00  0.00     0.087 A 
HETATM    8  C   UNK N   1      31.082  16.753   8.507  0.00  0.00     0.064 A 
HETATM    9  C   UNK N   1      30.125  17.023   7.543  0.00  0.00     0.088 A 
HETATM   10  S   UNK N   1      28.529  17.584   8.083  0.00  0.00     0.178 S 
HETATM   11  O   UNK N   1      28.701  17.441   9.606  0.00  0.00    -0.223 OA
HETATM   12  O   UNK N   1      29.119  18.921   8.556  0.00  0.00    -0.223 OA
HETATM   13  C   UNK N   1      28.537  19.048   7.049  0.00  0.00     0.157 C 
ENDROOT
BRANCH   7  14
HETATM   14  O   UNK N   1      33.124  15.826   9.133  0.00  0.00    -0.341 OA
BRANCH  14  15
HETATM   15  C   UNK N   1      34.075  16.724   9.568  0.00  0.00     0.278 C 
BRANCH  15  16
HETATM   16  C   UNK N   1      34.981  16.012  10.495  0.00  0.00     0.242 C 
HETATM   17  O   UNK N   1      36.139  16.381  10.601  0.00  0.00    -0.271 OA
HETATM   18  N   UNK N   1      34.591  14.802  10.959  0.00  0.00    -0.342 N 
HETATM   19  H   UNK N   1      33.656  14.657  11.232  0.00  0.00     0.163 HD
BRANCH  18  20
HETATM   20  C   UNK N   1      35.536  13.741  11.052  0.00  0.00     0.210 C 
BRANCH  20  21
HETATM   21  C   UNK N   1      35.736  13.363  12.487  0.00  0.00    -0.026 A 
HETATM   22  C   UNK N   1      34.915  12.380  13.050  0.00  0.00     0.010 A 
HETATM   23  C   UNK N   1      34.834  12.232  14.435  0.00  0.00     0.001 A 
HETATM   24  C   UNK N   1      35.546  13.096  15.271  0.00  0.00     0.000 A 
HETATM   25  C   UNK N   1      36.349  14.098  14.720  0.00  0.00     0.001 A 
HETATM   26  C   UNK N   1      36.429  14.244  13.331  0.00  0.00     0.010 A 
ENDBRANCH  20  21
BRANCH  20  27
HETATM   27  C   UNK N   1      36.170  13.242   9.783  0.00  0.00     0.245 C 
HETATM   28  O   UNK N   1      37.226  13.729   9.416  0.00  0.00    -0.271 OA
HETATM   29  N   UNK N   1      35.591  12.279   9.029  0.00  0.00    -0.349 N 
HETATM   30  H   UNK N   1      36.018  12.025   8.179  0.00  0.00     0.163 HD
BRANCH  29  31
HETATM   31  C   UNK N   1      34.377  11.614   9.419  0.00  0.00     0.232 C 
BRANCH  31  32
HETATM   32  C   UNK N   1      33.234  12.261   8.709  0.00  0.00     0.158 C 
HETATM   33  O   UNK N   1      33.041  12.031   7.528  0.00  0.00    -0.649 OA
BRANCH  32  34
HETATM   34  O   UNK N   1      32.397  13.074   9.378  0.00  0.00    -0.775 OA
HETATM   35  H   UNK N   1      32.673  13.889   9.751  0.00  0.00     0.167 HD
ENDBRANCH  32  34
ENDBRANCH  31  32
ENDBRANCH  29  31
ENDBRANCH  20  27
ENDBRANCH  18  20
ENDBRANCH  15  16
ENDBRANCH  14  15
ENDBRANCH   7  14
BRANCH   6  36
HETATM   36  S   UNK N   1      34.204  15.286   6.324  0.00  0.00    -0.132 SA
HETATM   37  C   UNK N   1      33.842  15.494   4.554  0.00  0.00     0.095 C 
ENDBRANCH   6  36
BRANCH   3  38
HETATM   38  C   UNK N   1      29.275  15.649   4.295  0.00  0.00     0.034 A 
HETATM   39  C   UNK N   1      29.437  15.765   2.901  0.00  0.00     0.029 A 
HETATM   40  C   UNK N   1      29.322  14.634   2.082  0.00  0.00     0.002 A 
HETATM   41  C   UNK N   1      29.037  13.382   2.636  0.00  0.00     0.000 A 
HETATM   42  C   UNK N   1      28.858  13.257   4.014  0.00  0.00     0.002 A 
HETATM   43  C   UNK N   1      28.976  14.381   4.830  0.00  0.00     0.029 A 
ENDBRANCH   3  38
BRANCH   1  44
HETATM   44  C   UNK N   1      27.650  20.181   5.076  0.00  0.00     0.012 C 
BRANCH  44  45
HETATM   45  C   UNK N   1      27.577  21.300   6.124  0.00  0.00     0.000 C 
BRANCH  45  46
HETATM   46  C   UNK N   1      26.130  21.679   6.414  0.00  0.00    -0.005 C 
HETATM   47  C   UNK N   1      25.879  21.655   7.910  0.00  0.00     0.005 C 
ENDBRANCH  45  46
ENDBRANCH  44  45
ENDBRANCH   1  44
BRANCH   1  48
HETATM   48  C   UNK N   1      26.606  18.015   5.844  0.00  0.00     0.012 C 
BRANCH  48  49
HETATM   49  C   UNK N   1      25.599  18.178   4.716  0.00  0.00     0.000 C 
BRANCH  49  50
HETATM   50  C   UNK N   1      24.963  16.861   4.338  0.00  0.00    -0.005 C 
HETATM   51  C   UNK N   1      25.779  16.235   3.229  0.00  0.00     0.005 C 
ENDBRANCH  49  50
ENDBRANCH  48  49
ENDBRANCH   1  48
TORSDOF 17
ENDMDL
MODEL 3
REMARK VINA RESULT:      -7.7      8.170     13.530
REMARK  17 active torsions:
REMARK  status: ('A' for Active; 'I' for Inactive)
REMARK    1  A    between atoms: C_2  and  C_3 
REMARK    2  A    between atoms: C_3  and  C_4 
REMARK    3  A    between atoms: C_4  and  C_5 
REMARK    4  A    between atoms: C_5  and  C_45 
REMARK    5  A    between atoms: N_7  and  C_39 
REMARK    6  A    between atoms: C_10  and  S_37 
REMARK    7  A    between atoms: C_11  and  O_18 
REMARK    8  A    between atoms: O_18  and  C_19 
REMARK    9  A    between atoms: C_19  and  C_20 
REMARK       I    between atoms: C_20  and  N_22 
REMARK   10  A    between atoms: C_23  and  N_22 
REMARK   11  A    between atoms: C_23  and  C_24 
REMARK   12  A    between atoms: C_23  and  C_30 
REMARK       I    between atoms: C_30  and  N_32 
REMARK   13  A    between atoms: N_32  and  C_33 
REMARK   14  A    between atoms: C_33  and  C_34 
REMARK   15  A    between atoms: C_34  and  O_36 
REMARK   16  A    between atoms: C_45  and  C_46 
REMARK   17  A    between atoms: C_46  and  C_47 
ROOT
HETATM    1  C   UNK N   1      35.320  11.986  14.479  0.00  0.00    -0.011 C 
HETATM    2  C   UNK N   1      34.717  10.611  14.113  0.00  0.00     0.140 C 
HETATM    3  N   UNK N   1      35.061  10.074  12.813  0.00  0.00    -0.345 N 
HETATM    4  C   UNK N   1      34.417  10.604  11.644  0.00  0.00     0.058 A 
HETATM    5  C   UNK N   1      33.568   9.760  10.927  0.00  0.00     0.052 A 
HETATM    6  C   UNK N   1      33.025  10.156   9.715  0.00  0.00     0.035 A 
HETATM    7  C   UNK N   1      33.368  11.411   9.203  0.00  0.00     0.087 A 
HETATM    8  C   UNK N   1      34.161  12.277   9.930  0.00  0.00     0.064 A 
HETATM    9  C   UNK N   1      34.683  11.904  11.157  0.00  0.00     0.088 A 
HETATM   10  S   UNK N   1      35.797  13.024  11.968  0.00  0.00     0.178 S 
HETATM   11  O   UNK N   1      35.942  14.092  10.869  0.00  0.00    -0.223 OA
HETATM   12  O   UNK N   1      34.661  14.028  12.220  0.00  0.00    -0.223 OA
HETATM   13  C   UNK N   1      34.870  13.059  13.502  0.00  0.00     0.157 C 
ENDROOT
BRANCH   7  14
HETATM   14  O   UNK N   1      33.031  11.752   7.963  0.00  0.00    -0.341 OA
BRANCH  14  15
HETATM   15  C   UNK N   1      33.826  12.675   7.320  0.00  0.00     0.278 C 
BRANCH  15  16
HETATM   16  C   UNK N   1      32.940  13.685   6.700  0.00  0.00     0.242 C 
HETATM   17  O   UNK N   1      32.734  13.643   5.498  0.00  0.00    -0.271 OA
HETATM   18  N   UNK N   1      32.635  14.788   7.420  0.00  0.00    -0.342 N 
HETATM   19  H   UNK N   1      32.429  14.710   8.380  0.00  0.00     0.163 HD
BRANCH  18  20
HETATM   20  C   UNK N   1      32.615  16.064   6.787  0.00  0.00     0.210 C 
BRANCH  20  21
HETATM   21  C   UNK N   1      31.200  16.471   6.511  0.00  0.00    -0.026 A 
HETATM   22  C   UNK N   1      30.836  16.811   5.204  0.00  0.00     0.010 A 
HETATM   23  C   UNK N   1      29.649  17.502   4.955  0.00  0.00     0.001 A 
HETATM   24  C   UNK N   1      28.837  17.898   6.020  0.00  0.00     0.000 A 
HETATM   25  C   UNK N   1      29.204  17.586   7.332  0.00  0.00     0.001 A 
HETATM   26  C   UNK N   1      30.393  16.892   7.579  0.00  0.00     0.010 A 
ENDBRANCH  20  21
BRANCH  20  27
HETATM   27  C   UNK N   1      33.929  16.725   6.478  0.00  0.00     0.245 C 
HETATM   28  O   UNK N   1      34.466  16.504   5.405  0.00  0.00    -0.271 OA
HETATM   29  N   UNK N   1      34.541  17.543   7.364  0.00  0.00    -0.349 N 
HETATM   30  H   UNK N   1      35.426  17.908   7.137  0.00  0.00     0.163 HD
BRANCH  29  31
HETATM   31  C   UNK N   1      33.950  17.899   8.627  0.00  0.00     0.232 C 
BRANCH  31  32
HETATM   32  C   UNK N   1      34.555  17.044   9.690  0.00  0.00     0.158 C 
HETATM   33  O   UNK N   1      35.587  17.393  10.239  0.00  0.00    -0.649 OA
BRANCH  32  34
HETATM   34  O   UNK N   1      33.949  15.904  10.068  0.00  0.00    -0.775 OA
HETATM   35  H   UNK N   1      34.010  15.564  10.940  0.00  0.00     0.167 HD
ENDBRANCH  32  34
ENDBRANCH  31  32
ENDBRANCH  29  31
ENDBRANCH  20  27
ENDBRANCH  18  20
ENDBRANCH  15  16
ENDBRANCH  14  15
ENDBRANCH   7  14
BRANCH   6  36
HETATM   36  S   UNK N   1      32.020   8.991   8.798  0.00  0.00    -0.132 SA
HETATM   37  C   UNK N   1      33.471   8.197   8.040  0.00  0.00     0.095 C 
ENDBRANCH   6  36
BRANCH   3  38
HETATM   38  C   UNK N   1      35.667   8.770  12.697  0.00  0.00     0.034 A 
HETATM   39  C   UNK N   1      35.270   7.707  13.531  0.00  0.00     0.029 A 
HETATM   40  C   UNK N   1      35.851   6.440  13.382  0.00  0.00     0.002 A 
HETATM   41  C   UNK N   1      36.834   6.220  12.413  0.00  0.00     0.000 A 
HETATM   42  C   UNK N   1      37.247   7.268  11.592  0.00  0.00     0.002 A 
HETATM   43  C   UNK N   1      36.668   8.527  11.736  0.00  0.00     0.029 A 
ENDBRANCH   3  38
BRANCH   1  44
HETATM   44  C   UNK N   1      34.735  12.378  15.843  0.00  0.00     0.012 C 
BRANCH  44  45
HETATM   45  C   UNK N   1      35.528  13.486  16.550  0.00  0.00     0.000 C 
BRANCH  45  46
HETATM   46  C   UNK N   1      35.171  13.549  18.030  0.00  0.00    -0.005 C 
HETATM   47  C   UNK N   1      35.274  12.165  18.645  0.00  0.00     0.005 C 
ENDBRANCH  45  46
ENDBRANCH  44  45
ENDBRANCH   1  44
BRANCH   1  48
HETATM   48  C   UNK N   1      36.863  11.974  14.547  0.00  0.00     0.012 C 
BRANCH  48  49
HETATM   49  C   UNK N   1      37.482  10.766  15.235  0.00  0.00     0.000 C 
BRANCH  49  50
HETATM   50  C   UNK N   1      38.639  10.203  14.443  0.00  0.00    -0.005 C 
HETATM   51  C   UNK N   1      38.867   8.773  14.879  0.00  0.00     0.005 C 
ENDBRANCH  49  50
ENDBRANCH  48  49
ENDBRANCH   1  48
TORSDOF 17
ENDMDL
MODEL 4
REMARK VINA RESULT:      -7.6      2.410      5.496
REMARK  17 active torsions:
REMARK  status: ('A' for Active; 'I' for Inactive)
REMARK    1  A    between atoms: C_2  and  C_3 
REMARK    2  A    between atoms: C_3  and  C_4 
REMARK    3  A    between atoms: C_4  and  C_5 
REMARK    4  A    between atoms: C_5  and  C_45 
REMARK    5  A    between atoms: N_7  and  C_39 
REMARK    6  A    between atoms: C_10  and  S_37 
REMARK    7  A    between atoms: C_11  and  O_18 
REMARK    8  A    between atoms: O_18  and  C_19 
REMARK    9  A    between atoms: C_19  and  C_20 
REMARK       I    between atoms: C_20  and  N_22 
REMARK   10  A    between atoms: C_23  and  N_22 
REMARK   11  A    between atoms: C_23  and  C_24 
REMARK   12  A    between atoms: C_23  and  C_30 
REMARK       I    between atoms: C_30  and  N_32 
REMARK   13  A    between atoms: N_32  and  C_33 
REMARK   14  A    between atoms: C_33  and  C_34 
REMARK   15  A    between atoms: C_34  and  O_36 
REMARK   16  A    between atoms: C_45  and  C_46 
REMARK   17  A    between atoms: C_46  and  C_47 
ROOT
HETATM    1  C   UNK N   1      21.797  16.776   4.729  0.00  0.00    -0.011 C 
HETATM    2  C   UNK N   1      22.256  15.305   4.611  0.00  0.00     0.140 C 
HETATM    3  N   UNK N   1      23.544  14.976   5.185  0.00  0.00    -0.345 N 
HETATM    4  C   UNK N   1      24.740  15.347   4.479  0.00  0.00     0.058 A 
HETATM    5  C   UNK N   1      25.547  14.323   3.984  0.00  0.00     0.052 A 
HETATM    6  C   UNK N   1      26.782  14.599   3.418  0.00  0.00     0.035 A 
HETATM    7  C   UNK N   1      27.222  15.926   3.380  0.00  0.00     0.087 A 
HETATM    8  C   UNK N   1      26.407  16.953   3.815  0.00  0.00     0.064 A 
HETATM    9  C   UNK N   1      25.158  16.691   4.353  0.00  0.00     0.088 A 
HETATM   10  S   UNK N   1      24.226  18.053   5.007  0.00  0.00     0.178 S 
HETATM   11  O   UNK N   1      25.273  19.174   4.876  0.00  0.00    -0.223 OA
HETATM   12  O   UNK N   1      24.026  18.637   3.600  0.00  0.00    -0.223 OA
HETATM   13  C   UNK N   1      22.767  17.710   4.025  0.00  0.00     0.157 C 
ENDROOT
BRANCH   7  14
HETATM   14  O   UNK N   1      28.471  16.216   3.028  0.00  0.00    -0.341 OA
BRANCH  14  15
HETATM   15  C   UNK N   1      29.132  17.175   3.764  0.00  0.00     0.278 C 
BRANCH  15  16
HETATM   16  C   UNK N   1      30.235  16.509   4.491  0.00  0.00     0.242 C 
HETATM   17  O   UNK N   1      30.289  15.290   4.510  0.00  0.00    -0.271 OA
HETATM   18  N   UNK N   1      30.964  17.251   5.355  0.00  0.00    -0.342 N 
HETATM   19  H   UNK N   1      31.231  18.168   5.115  0.00  0.00     0.163 HD
BRANCH  18  20
HETATM   20  C   UNK N   1      31.344  16.703   6.614  0.00  0.00     0.210 C 
BRANCH  20  21
HETATM   21  C   UNK N   1      30.349  17.098   7.661  0.00  0.00    -0.026 A 
HETATM   22  C   UNK N   1      28.985  16.941   7.394  0.00  0.00     0.010 A 
HETATM   23  C   UNK N   1      28.030  17.588   8.178  0.00  0.00     0.001 A 
HETATM   24  C   UNK N   1      28.435  18.434   9.214  0.00  0.00     0.000 A 
HETATM   25  C   UNK N   1      29.796  18.618   9.474  0.00  0.00     0.001 A 
HETATM   26  C   UNK N   1      30.752  17.968   8.686  0.00  0.00     0.010 A 
ENDBRANCH  20  21
BRANCH  20  27
HETATM   27  C   UNK N   1      32.621  15.913   6.688  0.00  0.00     0.245 C 
HETATM   28  O   UNK N   1      32.577  14.701   6.557  0.00  0.00    -0.271 OA
HETATM   29  N   UNK N   1      33.814  16.507   6.915  0.00  0.00    -0.349 N 
HETATM   30  H   UNK N   1      34.614  15.941   7.009  0.00  0.00     0.163 HD
BRANCH  29  31
HETATM   31  C   UNK N   1      33.961  17.934   7.026  0.00  0.00     0.232 C 
BRANCH  31  32
HETATM   32  C   UNK N   1      34.519  18.249   8.374  0.00  0.00     0.158 C 
HETATM   33  O   UNK N   1      35.295  19.180   8.511  0.00  0.00    -0.649 OA
BRANCH  32  34
HETATM   34  O   UNK N   1      34.143  17.529   9.446  0.00  0.00    -0.775 OA
HETATM   35  H   UNK N   1      33.508  16.841   9.396  0.00  0.00     0.167 HD
ENDBRANCH  32  34
ENDBRANCH  31  32
ENDBRANCH  29  31
ENDBRANCH  20  27
ENDBRANCH  18  20
ENDBRANCH  15  16
ENDBRANCH  14  15
ENDBRANCH   7  14
BRANCH   6  36
HETATM   36  S   UNK N   1      27.813  13.234   2.887  0.00  0.00    -0.132 SA
HETATM   37  C   UNK N   1      27.950  12.563   4.572  0.00  0.00     0.095 C 
ENDBRANCH   6  36
BRANCH   3  38
HETATM   38  C   UNK N   1      23.661  13.934   6.175  0.00  0.00     0.034 A 
HETATM   39  C   UNK N   1      24.451  14.112   7.328  0.00  0.00     0.029 A 
HETATM   40  C   UNK N   1      24.527  13.098   8.292  0.00  0.00     0.002 A 
HETATM   41  C   UNK N   1      23.830  11.899   8.118  0.00  0.00     0.000 A 
HETATM   42  C   UNK N   1      23.058  11.704   6.974  0.00  0.00     0.002 A 
HETATM   43  C   UNK N   1      22.977  12.713   6.016  0.00  0.00     0.029 A 
ENDBRANCH   3  38
BRANCH   1  44
HETATM   44  C   UNK N   1      20.468  16.888   3.969  0.00  0.00     0.012 C 
BRANCH  44  45
HETATM   45  C   UNK N   1      20.618  16.719   2.451  0.00  0.00     0.000 C 
BRANCH  45  46
HETATM   46  C   UNK N   1      19.913  17.846   1.707  0.00  0.00    -0.005 C 
HETATM   47  C   UNK N   1      19.500  18.931   2.685  0.00  0.00     0.005 C 
ENDBRANCH  45  46
ENDBRANCH  44  45
ENDBRANCH   1  44
BRANCH   1  48
HETATM   48  C   UNK N   1      21.613  17.239   6.191  0.00  0.00     0.012 C 
BRANCH  48  49
HETATM   49  C   UNK N   1      20.500  16.550   6.966  0.00  0.00     0.000 C 
BRANCH  49  50
HETATM   50  C   UNK N   1      20.995  15.991   8.279  0.00  0.00    -0.005 C 
HETATM   51  C   UNK N   1      20.644  14.521   8.337  0.00  0.00     0.005 C 
ENDBRANCH  49  50
ENDBRANCH  48  49
ENDBRANCH   1  48
TORSDOF 17
ENDMDL
MODEL 5
REMARK VINA RESULT:      -7.3      7.296     13.372
REMARK  17 active torsions:
REMARK  status: ('A' for Active; 'I' for Inactive)
REMARK    1  A    between atoms: C_2  and  C_3 
REMARK    2  A    between atoms: C_3  and  C_4 
REMARK    3  A    between atoms: C_4  and  C_5 
REMARK    4  A    between atoms: C_5  and  C_45 
REMARK    5  A    between atoms: N_7  and  C_39 
REMARK    6  A    between atoms: C_10  and  S_37 
REMARK    7  A    between atoms: C_11  and  O_18 
REMARK    8  A    between atoms: O_18  and  C_19 
REMARK    9  A    between atoms: C_19  and  C_20 
REMARK       I    between atoms: C_20  and  N_22 
REMARK   10  A    between atoms: C_23  and  N_22 
REMARK   11  A    between atoms: C_23  and  C_24 
REMARK   12  A    between atoms: C_23  and  C_30 
REMARK       I    between atoms: C_30  and  N_32 
REMARK   13  A    between atoms: N_32  and  C_33 
REMARK   14  A    between atoms: C_33  and  C_34 
REMARK   15  A    between atoms: C_34  and  O_36 
REMARK   16  A    between atoms: C_45  and  C_46 
REMARK   17  A    between atoms: C_46  and  C_47 
ROOT
HETATM    1  C   UNK N   1      36.340  11.212  12.082  0.00  0.00    -0.011 C 
HETATM    2  C   UNK N   1      36.963  10.330  10.976  0.00  0.00     0.140 C 
HETATM    3  N   UNK N   1      37.561  11.020   9.852  0.00  0.00    -0.345 N 
HETATM    4  C   UNK N   1      36.708  11.584   8.843  0.00  0.00     0.058 A 
HETATM    5  C   UNK N   1      36.763  11.034   7.562  0.00  0.00     0.052 A 
HETATM    6  C   UNK N   1      36.076  11.615   6.507  0.00  0.00     0.035 A 
HETATM    7  C   UNK N   1      35.349  12.785   6.742  0.00  0.00     0.087 A 
HETATM    8  C   UNK N   1      35.241  13.306   8.016  0.00  0.00     0.064 A 
HETATM    9  C   UNK N   1      35.897  12.716   9.084  0.00  0.00     0.088 A 
HETATM   10  S   UNK N   1      35.814  13.519  10.665  0.00  0.00     0.178 S 
HETATM   11  O   UNK N   1      35.082  14.813  10.265  0.00  0.00    -0.223 OA
HETATM   12  O   UNK N   1      34.317  13.197  10.789  0.00  0.00    -0.223 OA
HETATM   13  C   UNK N   1      35.214  12.068  11.529  0.00  0.00     0.157 C 
ENDROOT
BRANCH   7  14
HETATM   14  O   UNK N   1      34.839  13.481   5.730  0.00  0.00    -0.341 OA
BRANCH  14  15
HETATM   15  C   UNK N   1      35.355  14.737   5.498  0.00  0.00     0.278 C 
BRANCH  15  16
HETATM   16  C   UNK N   1      34.249  15.712   5.617  0.00  0.00     0.242 C 
HETATM   17  O   UNK N   1      34.506  16.886   5.828  0.00  0.00    -0.271 OA
HETATM   18  N   UNK N   1      32.996  15.231   5.793  0.00  0.00    -0.342 N 
HETATM   19  H   UNK N   1      32.693  14.446   5.282  0.00  0.00     0.163 HD
BRANCH  18  20
HETATM   20  C   UNK N   1      32.118  15.864   6.719  0.00  0.00     0.210 C 
BRANCH  20  21
HETATM   21  C   UNK N   1      31.119  16.701   5.981  0.00  0.00    -0.026 A 
HETATM   22  C   UNK N   1      30.013  17.203   6.674  0.00  0.00     0.010 A 
HETATM   23  C   UNK N   1      28.904  17.693   5.981  0.00  0.00     0.001 A 
HETATM   24  C   UNK N   1      28.878  17.645   4.585  0.00  0.00     0.000 A 
HETATM   25  C   UNK N   1      29.967  17.120   3.883  0.00  0.00     0.001 A 
HETATM   26  C   UNK N   1      31.077  16.630   4.580  0.00  0.00     0.010 A 
ENDBRANCH  20  21
BRANCH  20  27
HETATM   27  C   UNK N   1      32.354  15.642   8.186  0.00  0.00     0.245 C 
HETATM   28  O   UNK N   1      32.156  14.535   8.658  0.00  0.00    -0.271 OA
HETATM   29  N   UNK N   1      32.762  16.642   9.001  0.00  0.00    -0.349 N 
HETATM   30  H   UNK N   1      32.850  16.460   9.965  0.00  0.00     0.163 HD
BRANCH  29  31
HETATM   31  C   UNK N   1      33.070  17.961   8.516  0.00  0.00     0.232 C 
BRANCH  31  32
HETATM   32  C   UNK N   1      34.550  18.146   8.558  0.00  0.00     0.158 C 
HETATM   33  O   UNK N   1      35.035  19.241   8.328  0.00  0.00    -0.649 OA
BRANCH  32  34
HETATM   34  O   UNK N   1      35.352  17.115   8.879  0.00  0.00    -0.775 OA
HETATM   35  H   UNK N   1      35.172  16.233   8.616  0.00  0.00     0.167 HD
ENDBRANCH  32  34
ENDBRANCH  31  32
ENDBRANCH  29  31
ENDBRANCH  20  27
ENDBRANCH  18  20
ENDBRANCH  15  16
ENDBRANCH  14  15
ENDBRANCH   7  14
BRANCH   6  36
HETATM   36  S   UNK N   1      36.262  10.917   4.868  0.00  0.00    -0.132 SA
HETATM   37  C   UNK N   1      37.747  11.907   4.516  0.00  0.00     0.095 C 
ENDBRANCH   6  36
BRANCH   3  38
HETATM   38  C   UNK N   1      38.936  10.777   9.491  0.00  0.00     0.034 A 
HETATM   39  C   UNK N   1      39.776  11.829   9.075  0.00  0.00     0.029 A 
HETATM   40  C   UNK N   1      41.117  11.577   8.757  0.00  0.00     0.002 A 
HETATM   41  C   UNK N   1      41.634  10.281   8.840  0.00  0.00     0.000 A 
HETATM   42  C   UNK N   1      40.810   9.228   9.235  0.00  0.00     0.002 A 
HETATM   43  C   UNK N   1      39.476   9.478   9.556  0.00  0.00     0.029 A 
ENDBRANCH   3  38
BRANCH   1  44
HETATM   44  C   UNK N   1      35.694  10.259  13.097  0.00  0.00     0.012 C 
BRANCH  44  45
HETATM   45  C   UNK N   1      34.165  10.381  13.159  0.00  0.00     0.000 C 
BRANCH  45  46
HETATM   46  C   UNK N   1      33.706  10.749  14.565  0.00  0.00    -0.005 C 
HETATM   47  C   UNK N   1      34.550  10.017  15.592  0.00  0.00     0.005 C 
ENDBRANCH  45  46
ENDBRANCH  44  45
ENDBRANCH   1  44
BRANCH   1  48
HETATM   48  C   UNK N   1      37.371  12.119  12.788  0.00  0.00     0.012 C 
BRANCH  48  49
HETATM   49  C   UNK N   1      37.202  12.262  14.293  0.00  0.00     0.000 C 
BRANCH  49  50
HETATM   50  C   UNK N   1      36.543  13.571  14.660  0.00  0.00    -0.005 C 
HETATM   51  C   UNK N   1      35.932  13.431  16.036  0.00  0.00     0.005 C 
ENDBRANCH  49  50
ENDBRANCH  48  49
ENDBRANCH   1  48
TORSDOF 17
ENDMDL
MODEL 6
REMARK VINA RESULT:      -7.3      8.547     13.795
REMARK  17 active torsions:
REMARK  status: ('A' for Active; 'I' for Inactive)
REMARK    1  A    between atoms: C_2  and  C_3 
REMARK    2  A    between atoms: C_3  and  C_4 
REMARK    3  A    between atoms: C_4  and  C_5 
REMARK    4  A    between atoms: C_5  and  C_45 
REMARK    5  A    between atoms: N_7  and  C_39 
REMARK    6  A    between atoms: C_10  and  S_37 
REMARK    7  A    between atoms: C_11  and  O_18 
REMARK    8  A    between atoms: O_18  and  C_19 
REMARK    9  A    between atoms: C_19  and  C_20 
REMARK       I    between atoms: C_20  and  N_22 
REMARK   10  A    between atoms: C_23  and  N_22 
REMARK   11  A    between atoms: C_23  and  C_24 
REMARK   12  A    between atoms: C_23  and  C_30 
REMARK       I    between atoms: C_30  and  N_32 
REMARK   13  A    between atoms: N_32  and  C_33 
REMARK   14  A    between atoms: C_33  and  C_34 
REMARK   15  A    between atoms: C_34  and  O_36 
REMARK   16  A    between atoms: C_45  and  C_46 
REMARK   17  A    between atoms: C_46  and  C_47 
ROOT
HETATM    1  C   UNK N   1      35.646  11.166  15.024  0.00  0.00    -0.011 C 
HETATM    2  C   UNK N   1      35.060   9.939  14.290  0.00  0.00     0.140 C 
HETATM    3  N   UNK N   1      35.471   9.744  12.915  0.00  0.00    -0.345 N 
HETATM    4  C   UNK N   1      34.890  10.564  11.888  0.00  0.00     0.058 A 
HETATM    5  C   UNK N   1      34.079   9.941  10.939  0.00  0.00     0.052 A 
HETATM    6  C   UNK N   1      33.602  10.641   9.842  0.00  0.00     0.035 A 
HETATM    7  C   UNK N   1      33.973  11.979   9.684  0.00  0.00     0.087 A 
HETATM    8  C   UNK N   1      34.728  12.621  10.646  0.00  0.00     0.064 A 
HETATM    9  C   UNK N   1      35.185  11.940  11.763  0.00  0.00     0.088 A 
HETATM   10  S   UNK N   1      36.256  12.800  12.887  0.00  0.00     0.178 S 
HETATM   11  O   UNK N   1      36.461  14.110  12.105  0.00  0.00    -0.223 OA
HETATM   12  O   UNK N   1      35.110  13.724  13.328  0.00  0.00    -0.223 OA
HETATM   13  C   UNK N   1      35.249  12.459  14.330  0.00  0.00     0.157 C 
ENDROOT
BRANCH   7  14
HETATM   14  O   UNK N   1      33.702  12.629   8.556  0.00  0.00    -0.341 OA
BRANCH  14  15
HETATM   15  C   UNK N   1      32.722  13.597   8.600  0.00  0.00     0.278 C 
BRANCH  15  16
HETATM   16  C   UNK N   1      33.276  14.832   8.005  0.00  0.00     0.242 C 
HETATM   17  O   UNK N   1      34.083  15.492   8.638  0.00  0.00    -0.271 OA
HETATM   18  N   UNK N   1      32.653  15.349   6.921  0.00  0.00    -0.342 N 
HETATM   19  H   UNK N   1      32.328  14.753   6.207  0.00  0.00     0.163 HD
BRANCH  18  20
HETATM   20  C   UNK N   1      32.465  16.757   6.816  0.00  0.00     0.210 C 
BRANCH  20  21
HETATM   21  C   UNK N   1      31.215  17.158   7.536  0.00  0.00    -0.026 A 
HETATM   22  C   UNK N   1      29.988  17.053   6.873  0.00  0.00     0.010 A 
HETATM   23  C   UNK N   1      28.859  17.711   7.362  0.00  0.00     0.001 A 
HETATM   24  C   UNK N   1      28.959  18.516   8.499  0.00  0.00     0.000 A 
HETATM   25  C   UNK N   1      30.187  18.650   9.155  0.00  0.00     0.001 A 
HETATM   26  C   UNK N   1      31.317  17.989   8.663  0.00  0.00     0.010 A 
ENDBRANCH  20  21
BRANCH  20  27
HETATM   27  C   UNK N   1      33.460  17.548   6.013  0.00  0.00     0.245 C 
HETATM   28  O   UNK N   1      34.401  18.073   6.584  0.00  0.00    -0.271 OA
HETATM   29  N   UNK N   1      33.329  17.708   4.676  0.00  0.00    -0.349 N 
HETATM   30  H   UNK N   1      33.976  18.279   4.203  0.00  0.00     0.163 HD
BRANCH  29  31
HETATM   31  C   UNK N   1      32.281  17.078   3.918  0.00  0.00     0.232 C 
BRANCH  31  32
HETATM   32  C   UNK N   1      32.822  15.824   3.315  0.00  0.00     0.158 C 
HETATM   33  O   UNK N   1      33.540  15.882   2.331  0.00  0.00    -0.649 OA
BRANCH  32  34
HETATM   34  O   UNK N   1      32.545  14.631   3.872  0.00  0.00    -0.775 OA
HETATM   35  H   UNK N   1      31.797  14.121   3.628  0.00  0.00     0.167 HD
ENDBRANCH  32  34
ENDBRANCH  31  32
ENDBRANCH  29  31
ENDBRANCH  20  27
ENDBRANCH  18  20
ENDBRANCH  15  16
ENDBRANCH  14  15
ENDBRANCH   7  14
BRANCH   6  36
HETATM   36  S   UNK N   1      32.644   9.762   8.609  0.00  0.00    -0.132 SA
HETATM   37  C   UNK N   1      34.112   8.928   7.931  0.00  0.00     0.095 C 
ENDBRANCH   6  36
BRANCH   3  38
HETATM   38  C   UNK N   1      36.080   8.503  12.502  0.00  0.00     0.034 A 
HETATM   39  C   UNK N   1      37.128   8.485  11.561  0.00  0.00     0.029 A 
HETATM   40  C   UNK N   1      37.725   7.272  11.194  0.00  0.00     0.002 A 
HETATM   41  C   UNK N   1      37.284   6.067  11.750  0.00  0.00     0.000 A 
HETATM   42  C   UNK N   1      36.236   6.070  12.671  0.00  0.00     0.002 A 
HETATM   43  C   UNK N   1      35.644   7.276  13.040  0.00  0.00     0.029 A 
ENDBRANCH   3  38
BRANCH   1  44
HETATM   44  C   UNK N   1      34.990  11.208  16.411  0.00  0.00     0.012 C 
BRANCH  44  45
HETATM   45  C   UNK N   1      34.581   9.824  16.933  0.00  0.00     0.000 C 
BRANCH  45  46
HETATM   46  C   UNK N   1      34.840   9.710  18.431  0.00  0.00    -0.005 C 
HETATM   47  C   UNK N   1      35.722  10.856  18.891  0.00  0.00     0.005 C 
ENDBRANCH  45  46
ENDBRANCH  44  45
ENDBRANCH   1  44
BRANCH   1  48
HETATM   48  C   UNK N   1      37.183  11.113  15.164  0.00  0.00     0.012 C 
BRANCH  48  49
HETATM   49  C   UNK N   1      37.767   9.749  15.500  0.00  0.00     0.000 C 
BRANCH  49  50
HETATM   50  C   UNK N   1      38.989   9.443  14.666  0.00  0.00    -0.005 C 
HETATM   51  C   UNK N   1      39.188   7.944  14.639  0.00  0.00     0.005 C 
ENDBRANCH  49  50
ENDBRANCH  48  49
ENDBRANCH   1  48
TORSDOF 17
ENDMDL
MODEL 7
REMARK VINA RESULT:      -7.3      5.142      8.949
REMARK  17 active torsions:
REMARK  status: ('A' for Active; 'I' for Inactive)
REMARK    1  A    between atoms: C_2  and  C_3 
REMARK    2  A    between atoms: C_3  and  C_4 
REMARK    3  A    between atoms: C_4  and  C_5 
REMARK    4  A    between atoms: C_5  and  C_45 
REMARK    5  A    between atoms: N_7  and  C_39 
REMARK    6  A    between atoms: C_10  and  S_37 
REMARK    7  A    between atoms: C_11  and  O_18 
REMARK    8  A    between atoms: O_18  and  C_19 
REMARK    9  A    between atoms: C_19  and  C_20 
REMARK       I    between atoms: C_20  and  N_22 
REMARK   10  A    between atoms: C_23  and  N_22 
REMARK   11  A    between atoms: C_23  and  C_24 
REMARK   12  A    between atoms: C_23  and  C_30 
REMARK       I    between atoms: C_30  and  N_32 
REMARK   13  A    between atoms: N_32  and  C_33 
REMARK   14  A    between atoms: C_33  and  C_34 
REMARK   15  A    between atoms: C_34  and  O_36 
REMARK   16  A    between atoms: C_45  and  C_46 
REMARK   17  A    between atoms: C_46  and  C_47 
ROOT
HETATM    1  C   UNK N   1      27.701  18.332   5.515  0.00  0.00    -0.011 C 
HETATM    2  C   UNK N   1      28.662  17.684   4.493  0.00  0.00     0.140 C 
HETATM    3  N   UNK N   1      29.321  16.461   4.902  0.00  0.00    -0.345 N 
HETATM    4  C   UNK N   1      30.430  16.535   5.813  0.00  0.00     0.058 A 
HETATM    5  C   UNK N   1      31.688  16.160   5.339  0.00  0.00     0.052 A 
HETATM    6  C   UNK N   1      32.774  16.071   6.195  0.00  0.00     0.035 A 
HETATM    7  C   UNK N   1      32.581  16.334   7.555  0.00  0.00     0.087 A 
HETATM    8  C   UNK N   1      31.355  16.760   8.025  0.00  0.00     0.064 A 
HETATM    9  C   UNK N   1      30.270  16.884   7.173  0.00  0.00     0.088 A 
HETATM   10  S   UNK N   1      28.697  17.312   7.876  0.00  0.00     0.178 S 
HETATM   11  O   UNK N   1      29.058  17.268   9.373  0.00  0.00    -0.223 OA
HETATM   12  O   UNK N   1      29.197  18.725   8.220  0.00  0.00    -0.223 OA
HETATM   13  C   UNK N   1      28.434  18.713   6.790  0.00  0.00     0.157 C 
ENDROOT
BRANCH   7  14
HETATM   14  O   UNK N   1      33.541  16.073   8.438  0.00  0.00    -0.341 OA
BRANCH  14  15
HETATM   15  C   UNK N   1      34.210  17.147   8.984  0.00  0.00     0.278 C 
BRANCH  15  16
HETATM   16  C   UNK N   1      34.934  16.669  10.183  0.00  0.00     0.242 C 
HETATM   17  O   UNK N   1      35.894  17.299  10.592  0.00  0.00    -0.271 OA
HETATM   18  N   UNK N   1      34.702  15.403  10.600  0.00  0.00    -0.342 N 
HETATM   19  H   UNK N   1      33.786  15.043  10.600  0.00  0.00     0.163 HD
BRANCH  18  20
HETATM   20  C   UNK N   1      35.788  14.592  11.039  0.00  0.00     0.210 C 
BRANCH  20  21
HETATM   21  C   UNK N   1      36.605  14.157   9.861  0.00  0.00    -0.026 A 
HETATM   22  C   UNK N   1      35.967  13.514   8.795  0.00  0.00     0.010 A 
HETATM   23  C   UNK N   1      36.708  12.805   7.849  0.00  0.00     0.001 A 
HETATM   24  C   UNK N   1      38.094  12.698   7.986  0.00  0.00     0.000 A 
HETATM   25  C   UNK N   1      38.739  13.315   9.062  0.00  0.00     0.001 A 
HETATM   26  C   UNK N   1      37.994  14.026  10.009  0.00  0.00     0.010 A 
ENDBRANCH  20  21
BRANCH  20  27
HETATM   27  C   UNK N   1      35.900  14.288  12.506  0.00  0.00     0.245 C 
HETATM   28  O   UNK N   1      36.291  15.160  13.265  0.00  0.00    -0.271 OA
HETATM   29  N   UNK N   1      35.596  13.068  13.006  0.00  0.00    -0.349 N 
HETATM   30  H   UNK N   1      35.737  12.902  13.965  0.00  0.00     0.163 HD
BRANCH  29  31
HETATM   31  C   UNK N   1      35.077  12.003  12.189  0.00  0.00     0.232 C 
BRANCH  31  32
HETATM   32  C   UNK N   1      36.139  10.966  12.032  0.00  0.00     0.158 C 
HETATM   33  O   UNK N   1      36.665  10.792  10.946  0.00  0.00    -0.649 OA
BRANCH  32  34
HETATM   34  O   UNK N   1      36.540  10.243  13.093  0.00  0.00    -0.775 OA
HETATM   35  H   UNK N   1      36.830  10.638  13.893  0.00  0.00     0.167 HD
ENDBRANCH  32  34
ENDBRANCH  31  32
ENDBRANCH  29  31
ENDBRANCH  20  27
ENDBRANCH  18  20
ENDBRANCH  15  16
ENDBRANCH  14  15
ENDBRANCH   7  14
BRANCH   6  36
HETATM   36  S   UNK N   1      34.340  15.493   5.545  0.00  0.00    -0.132 SA
HETATM   37  C   UNK N   1      33.792  13.759   5.517  0.00  0.00     0.095 C 
ENDBRANCH   6  36
BRANCH   3  38
HETATM   38  C   UNK N   1      29.199  15.262   4.109  0.00  0.00     0.034 A 
HETATM   39  C   UNK N   1      29.364  15.295   2.711  0.00  0.00     0.029 A 
HETATM   40  C   UNK N   1      29.269  14.114   1.962  0.00  0.00     0.002 A 
HETATM   41  C   UNK N   1      29.003  12.895   2.591  0.00  0.00     0.000 A 
HETATM   42  C   UNK N   1      28.821  12.851   3.973  0.00  0.00     0.002 A 
HETATM   43  C   UNK N   1      28.919  14.024   4.720  0.00  0.00     0.029 A 
ENDBRANCH   3  38
BRANCH   1  44
HETATM   44  C   UNK N   1      27.213  19.647   4.892  0.00  0.00     0.012 C 
BRANCH  44  45
HETATM   45  C   UNK N   1      27.708  20.894   5.638  0.00  0.00     0.000 C 
BRANCH  45  46
HETATM   46  C   UNK N   1      26.538  21.773   6.063  0.00  0.00    -0.005 C 
HETATM   47  C   UNK N   1      26.134  21.441   7.487  0.00  0.00     0.005 C 
ENDBRANCH  45  46
ENDBRANCH  44  45
ENDBRANCH   1  44
BRANCH   1  48
HETATM   48  C   UNK N   1      26.496  17.433   5.869  0.00  0.00     0.012 C 
BRANCH  48  49
HETATM   49  C   UNK N   1      25.435  17.295   4.787  0.00  0.00     0.000 C 
BRANCH  49  50
HETATM   50  C   UNK N   1      25.480  15.936   4.130  0.00  0.00    -0.005 C 
HETATM   51  C   UNK N   1      25.862  16.117   2.678  0.00  0.00     0.005 C 
ENDBRANCH  49  50
ENDBRANCH  48  49
ENDBRANCH   1  48
TORSDOF 17
ENDMDL
MODEL 8
REMARK VINA RESULT:      -7.3      6.518     12.864
REMARK  17 active torsions:
REMARK  status: ('A' for Active; 'I' for Inactive)
REMARK    1  A    between atoms: C_2  and  C_3 
REMARK    2  A    between atoms: C_3  and  C_4 
REMARK    3  A    between atoms: C_4  and  C_5 
REMARK    4  A    between atoms: C_5  and  C_45 
REMARK    5  A    between atoms: N_7  and  C_39 
REMARK    6  A    between atoms: C_10  and  S_37 
REMARK    7  A    between atoms: C_11  and  O_18 
REMARK    8  A    between atoms: O_18  and  C_19 
REMARK    9  A    between atoms: C_19  and  C_20 
REMARK       I    between atoms: C_20  and  N_22 
REMARK   10  A    between atoms: C_23  and  N_22 
REMARK   11  A    between atoms: C_23  and  C_24 
REMARK   12  A    between atoms: C_23  and  C_30 
REMARK       I    between atoms: C_30  and  N_32 
REMARK   13  A    between atoms: N_32  and  C_33 
REMARK   14  A    between atoms: C_33  and  C_34 
REMARK   15  A    between atoms: C_34  and  O_36 
REMARK   16  A    between atoms: C_45  and  C_46 
REMARK   17  A    between atoms: C_46  and  C_47 
ROOT
HETATM    1  C   UNK N   1      35.486  12.681  12.204  0.00  0.00    -0.011 C 
HETATM    2  C   UNK N   1      35.871  11.874  10.944  0.00  0.00     0.140 C 
HETATM    3  N   UNK N   1      36.652  12.566   9.939  0.00  0.00    -0.345 N 
HETATM    4  C   UNK N   1      35.998  13.505   9.070  0.00  0.00     0.058 A 
HETATM    5  C   UNK N   1      35.927  13.194   7.712  0.00  0.00     0.052 A 
HETATM    6  C   UNK N   1      35.439  14.112   6.795  0.00  0.00     0.035 A 
HETATM    7  C   UNK N   1      35.047  15.374   7.251  0.00  0.00     0.087 A 
HETATM    8  C   UNK N   1      35.060  15.672   8.600  0.00  0.00     0.064 A 
HETATM    9  C   UNK N   1      35.515  14.751   9.528  0.00  0.00     0.088 A 
HETATM   10  S   UNK N   1      35.621  15.257  11.227  0.00  0.00     0.178 S 
HETATM   11  O   UNK N   1      35.268  16.748  11.080  0.00  0.00    -0.223 OA
HETATM   12  O   UNK N   1      34.090  15.328  11.338  0.00  0.00    -0.223 OA
HETATM   13  C   UNK N   1      34.640  13.890  11.842  0.00  0.00     0.157 C 
ENDROOT
BRANCH   7  14
HETATM   14  O   UNK N   1      34.759  16.346   6.392  0.00  0.00    -0.341 OA
BRANCH  14  15
HETATM   15  C   UNK N   1      34.271  17.527   6.908  0.00  0.00     0.278 C 
BRANCH  15  16
HETATM   16  C   UNK N   1      32.797  17.425   6.959  0.00  0.00     0.242 C 
HETATM   17  O   UNK N   1      32.245  17.276   8.037  0.00  0.00    -0.271 OA
HETATM   18  N   UNK N   1      32.136  17.197   5.801  0.00  0.00    -0.342 N 
HETATM   19  H   UNK N   1      32.408  17.663   4.978  0.00  0.00     0.163 HD
BRANCH  18  20
HETATM   20  C   UNK N   1      31.046  16.279   5.777  0.00  0.00     0.210 C 
BRANCH  20  21
HETATM   21  C   UNK N   1      29.750  17.029   5.811  0.00  0.00    -0.026 A 
HETATM   22  C   UNK N   1      29.426  17.870   4.741  0.00  0.00     0.010 A 
HETATM   23  C   UNK N   1      28.417  18.825   4.870  0.00  0.00     0.001 A 
HETATM   24  C   UNK N   1      27.751  18.975   6.089  0.00  0.00     0.000 A 
HETATM   25  C   UNK N   1      28.085  18.157   7.173  0.00  0.00     0.001 A 
HETATM   26  C   UNK N   1      29.096  17.200   7.040  0.00  0.00     0.010 A 
ENDBRANCH  20  21
BRANCH  20  27
HETATM   27  C   UNK N   1      31.356  14.809   5.771  0.00  0.00     0.245 C 
HETATM   28  O   UNK N   1      31.386  14.204   6.830  0.00  0.00    -0.271 OA
HETATM   29  N   UNK N   1      31.622  14.141   4.624  0.00  0.00    -0.349 N 
HETATM   30  H   UNK N   1      31.872  13.191   4.678  0.00  0.00     0.163 HD
BRANCH  29  31
HETATM   31  C   UNK N   1      31.553  14.766   3.330  0.00  0.00     0.232 C 
BRANCH  31  32
HETATM   32  C   UNK N   1      32.937  15.127   2.905  0.00  0.00     0.158 C 
HETATM   33  O   UNK N   1      33.516  14.449   2.073  0.00  0.00    -0.649 OA
BRANCH  32  34
HETATM   34  O   UNK N   1      33.537  16.218   3.413  0.00  0.00    -0.775 OA
HETATM   35  H   UNK N   1      34.366  16.529   3.104  0.00  0.00     0.167 HD
ENDBRANCH  32  34
ENDBRANCH  31  32
ENDBRANCH  29  31
ENDBRANCH  20  27
ENDBRANCH  18  20
ENDBRANCH  15  16
ENDBRANCH  14  15
ENDBRANCH   7  14
BRANCH   6  36
HETATM   36  S   UNK N   1      35.462  13.689   5.054  0.00  0.00    -0.132 SA
HETATM   37  C   UNK N   1      34.509  12.162   5.320  0.00  0.00     0.095 C 
ENDBRANCH   6  36
BRANCH   3  38
HETATM   38  C   UNK N   1      37.918  12.034   9.501  0.00  0.00     0.034 A 
HETATM   39  C   UNK N   1      38.121  10.645   9.380  0.00  0.00     0.029 A 
HETATM   40  C   UNK N   1      39.350  10.149   8.925  0.00  0.00     0.002 A 
HETATM   41  C   UNK N   1      40.389  11.024   8.594  0.00  0.00     0.000 A 
HETATM   42  C   UNK N   1      40.207  12.400   8.725  0.00  0.00     0.002 A 
HETATM   43  C   UNK N   1      38.984  12.895   9.174  0.00  0.00     0.029 A 
ENDBRANCH   3  38
BRANCH   1  44
HETATM   44  C   UNK N   1      34.591  11.771  13.057  0.00  0.00     0.012 C 
BRANCH  44  45
HETATM   45  C   UNK N   1      35.291  10.485  13.516  0.00  0.00     0.000 C 
BRANCH  45  46
HETATM   46  C   UNK N   1      34.693   9.978  14.823  0.00  0.00    -0.005 C 
HETATM   47  C   UNK N   1      35.802   9.592  15.783  0.00  0.00     0.005 C 
ENDBRANCH  45  46
ENDBRANCH  44  45
ENDBRANCH   1  44
BRANCH   1  48
HETATM   48  C   UNK N   1      36.710  13.143  13.026  0.00  0.00     0.012 C 
BRANCH  48  49
HETATM   49  C   UNK N   1      36.398  13.973  14.263  0.00  0.00     0.000 C 
BRANCH  49  50
HETATM   50  C   UNK N   1      36.789  13.254  15.533  0.00  0.00    -0.005 C 
HETATM   51  C   UNK N   1      35.604  13.262  16.472  0.00  0.00     0.005 C 
ENDBRANCH  49  50
ENDBRANCH  48  49
ENDBRANCH   1  48
TORSDOF 17
ENDMDL
MODEL 9
REMARK VINA RESULT:      -7.1      4.527      7.964
REMARK  17 active torsions:
REMARK  status: ('A' for Active; 'I' for Inactive)
REMARK    1  A    between atoms: C_2  and  C_3 
REMARK    2  A    between atoms: C_3  and  C_4 
REMARK    3  A    between atoms: C_4  and  C_5 
REMARK    4  A    between atoms: C_5  and  C_45 
REMARK    5  A    between atoms: N_7  and  C_39 
REMARK    6  A    between atoms: C_10  and  S_37 
REMARK    7  A    between atoms: C_11  and  O_18 
REMARK    8  A    between atoms: O_18  and  C_19 
REMARK    9  A    between atoms: C_19  and  C_20 
REMARK       I    between atoms: C_20  and  N_22 
REMARK   10  A    between atoms: C_23  and  N_22 
REMARK   11  A    between atoms: C_23  and  C_24 
REMARK   12  A    between atoms: C_23  and  C_30 
REMARK       I    between atoms: C_30  and  N_32 
REMARK   13  A    between atoms: N_32  and  C_33 
REMARK   14  A    between atoms: C_33  and  C_34 
REMARK   15  A    between atoms: C_34  and  O_36 
REMARK   16  A    between atoms: C_45  and  C_46 
REMARK   17  A    between atoms: C_46  and  C_47 
ROOT
HETATM    1  C   UNK N   1      26.347  17.297   4.329  0.00  0.00    -0.011 C 
HETATM    2  C   UNK N   1      27.347  16.564   3.406  0.00  0.00     0.140 C 
HETATM    3  N   UNK N   1      28.300  15.682   4.047  0.00  0.00    -0.345 N 
HETATM    4  C   UNK N   1      29.431  16.250   4.727  0.00  0.00     0.058 A 
HETATM    5  C   UNK N   1      30.699  16.000   4.202  0.00  0.00     0.052 A 
HETATM    6  C   UNK N   1      31.842  16.395   4.881  0.00  0.00     0.035 A 
HETATM    7  C   UNK N   1      31.703  17.023   6.122  0.00  0.00     0.087 A 
HETATM    8  C   UNK N   1      30.453  17.327   6.624  0.00  0.00     0.064 A 
HETATM    9  C   UNK N   1      29.304  16.965   5.939  0.00  0.00     0.088 A 
HETATM   10  S   UNK N   1      27.736  17.276   6.712  0.00  0.00     0.178 S 
HETATM   11  O   UNK N   1      28.215  17.770   8.089  0.00  0.00    -0.223 OA
HETATM   12  O   UNK N   1      27.923  18.794   6.561  0.00  0.00    -0.223 OA
HETATM   13  C   UNK N   1      27.072  18.191   5.321  0.00  0.00     0.157 C 
ENDROOT
BRANCH   7  14
HETATM   14  O   UNK N   1      32.764  17.242   6.893  0.00  0.00    -0.341 OA
BRANCH  14  15
HETATM   15  C   UNK N   1      32.537  17.495   8.228  0.00  0.00     0.278 C 
BRANCH  15  16
HETATM   16  C   UNK N   1      33.777  17.174   8.968  0.00  0.00     0.242 C 
HETATM   17  O   UNK N   1      34.822  17.715   8.647  0.00  0.00    -0.271 OA
HETATM   18  N   UNK N   1      33.776  16.080   9.764  0.00  0.00    -0.342 N 
HETATM   19  H   UNK N   1      32.993  15.880  10.326  0.00  0.00     0.163 HD
BRANCH  18  20
HETATM   20  C   UNK N   1      34.911  15.218   9.785  0.00  0.00     0.210 C 
BRANCH  20  21
HETATM   21  C   UNK N   1      34.820  14.232   8.662  0.00  0.00    -0.026 A 
HETATM   22  C   UNK N   1      35.854  14.180   7.721  0.00  0.00     0.010 A 
HETATM   23  C   UNK N   1      35.668  13.533   6.499  0.00  0.00     0.001 A 
HETATM   24  C   UNK N   1      34.429  12.967   6.191  0.00  0.00     0.000 A 
HETATM   25  C   UNK N   1      33.381  13.036   7.113  0.00  0.00     0.001 A 
HETATM   26  C   UNK N   1      33.569  13.684   8.338  0.00  0.00     0.010 A 
ENDBRANCH  20  21
BRANCH  20  27
HETATM   27  C   UNK N   1      35.918  15.398  10.886  0.00  0.00     0.245 C 
HETATM   28  O   UNK N   1      36.729  16.306  10.806  0.00  0.00    -0.271 OA
HETATM   29  N   UNK N   1      35.961  14.568  11.954  0.00  0.00    -0.349 N 
HETATM   30  H   UNK N   1      36.674  14.694  12.621  0.00  0.00     0.163 HD
BRANCH  29  31
HETATM   31  C   UNK N   1      35.008  13.509  12.152  0.00  0.00     0.232 C 
BRANCH  31  32
HETATM   32  C   UNK N   1      35.284  12.865  13.470  0.00  0.00     0.158 C 
HETATM   33  O   UNK N   1      36.152  12.014  13.563  0.00  0.00    -0.649 OA
BRANCH  32  34
HETATM   34  O   UNK N   1      34.599  13.244  14.564  0.00  0.00    -0.775 OA
HETATM   35  H   UNK N   1      33.679  13.421  14.548  0.00  0.00     0.167 HD
ENDBRANCH  32  34
ENDBRANCH  31  32
ENDBRANCH  29  31
ENDBRANCH  20  27
ENDBRANCH  18  20
ENDBRANCH  15  16
ENDBRANCH  14  15
ENDBRANCH   7  14
BRANCH   6  36
HETATM   36  S   UNK N   1      33.442  15.960   4.202  0.00  0.00    -0.132 SA
HETATM   37  C   UNK N   1      32.718  14.809   2.994  0.00  0.00     0.095 C 
ENDBRANCH   6  36
BRANCH   3  38
HETATM   38  C   UNK N   1      28.394  14.297   3.656  0.00  0.00     0.034 A 
HETATM   39  C   UNK N   1      28.480  13.274   4.620  0.00  0.00     0.029 A 
HETATM   40  C   UNK N   1      28.541  11.932   4.220  0.00  0.00     0.002 A 
HETATM   41  C   UNK N   1      28.526  11.595   2.863  0.00  0.00     0.000 A 
HETATM   42  C   UNK N   1      28.457  12.599   1.899  0.00  0.00     0.002 A 
HETATM   43  C   UNK N   1      28.392  13.934   2.295  0.00  0.00     0.029 A 
ENDBRANCH   3  38
BRANCH   1  44
HETATM   44  C   UNK N   1      25.522  18.233   3.435  0.00  0.00     0.012 C 
BRANCH  44  45
HETATM   45  C   UNK N   1      25.924  19.708   3.561  0.00  0.00     0.000 C 
BRANCH  45  46
HETATM   46  C   UNK N   1      25.106  20.577   2.614  0.00  0.00    -0.005 C 
HETATM   47  C   UNK N   1      23.633  20.479   2.965  0.00  0.00     0.005 C 
ENDBRANCH  45  46
ENDBRANCH  44  45
ENDBRANCH   1  44
BRANCH   1  48
HETATM   48  C   UNK N   1      25.413  16.336   5.097  0.00  0.00     0.012 C 
BRANCH  48  49
HETATM   49  C   UNK N   1      23.987  16.245   4.574  0.00  0.00     0.000 C 
BRANCH  49  50
HETATM   50  C   UNK N   1      22.973  16.498   5.665  0.00  0.00    -0.005 C 
HETATM   51  C   UNK N   1      22.515  17.936   5.570  0.00  0.00     0.005 C 
ENDBRANCH  49  50
ENDBRANCH  48  49
ENDBRANCH   1  48
TORSDOF 17
ENDMDL
