REMARK  8 active torsions:
REMARK  status: ('A' for Active; 'I' for Inactive)
REMARK    1  A    between atoms: C_2  and  C_3 
REMARK    2  A    between atoms: C_2  and  N_21 
REMARK    3  A    between atoms: C_6  and  C_10 
REMARK    4  A    between atoms: C_15  and  C_16 
REMARK    5  A    between atoms: C_16  and  O_18 
REMARK       I    between atoms: N_21  and  C_22 
REMARK    6  A    between atoms: C_22  and  C_24 
REMARK    7  A    between atoms: C_24  and  N_27 
REMARK       I    between atoms: N_27  and  C_28 
REMARK    8  A    between atoms: C_28  and  C_30 
ROOT
HETATM    1  C   UNK N   1       0.123  -3.010   0.384  0.00  0.00     0.003 A 
HETATM    2  C   UNK N   1      -0.734  -2.113  -0.279  0.00  0.00     0.013 A 
HETATM    3  C   UNK N   1      -0.336  -0.777  -0.468  0.00  0.00     0.013 A 
HETATM    4  C   UNK N   1       0.941  -0.351  -0.047  0.00  0.00    -0.022 A 
HETATM    5  C   UNK N   1       1.748  -1.255   0.643  0.00  0.00     0.055 A 
HETATM    6  C   UNK N   1       1.348  -2.560   0.858  0.00  0.00     0.125 A 
HETATM    7  F   UNK N   1       2.166  -3.396   1.523  0.00  0.00    -0.205 F 
ENDROOT
BRANCH   1   8
HETATM    8  C   UNK N   1      -0.211  -4.450   0.604  0.00  0.00     0.116 C 
HETATM    9  C   UNK N   1      -1.542  -4.635   1.310  0.00  0.00     0.037 C 
BRANCH   8  10
HETATM   10  N   UNK N   1      -0.185  -5.190  -0.630  0.00  0.00    -0.351 N 
HETATM   11  C   UNK N   1       0.817  -6.045  -0.972  0.00  0.00     0.246 C 
HETATM   12  O   UNK N   1       0.689  -6.709  -1.990  0.00  0.00    -0.271 OA
HETATM   13  H   UNK N   1      -0.932  -5.072  -1.260  0.00  0.00     0.163 HD
BRANCH  11  14
HETATM   14  C   UNK N   1       2.102  -6.203  -0.165  0.00  0.00     0.114 A 
HETATM   15  C   UNK N   1       2.059  -7.652   0.326  0.00  0.00     0.044 A 
HETATM   16  C   UNK N   1       2.147  -6.555   1.326  0.00  0.00     0.044 A 
BRANCH  14  17
HETATM   17  N   UNK N   1       3.307  -6.121  -0.980  0.00  0.00    -0.335 N 
HETATM   18  C   UNK N   1       4.477  -5.426  -0.853  0.00  0.00     0.326 C 
HETATM   19  O   UNK N   1       5.246  -5.438  -1.801  0.00  0.00    -0.263 OA
HETATM   20  H   UNK N   1       3.270  -6.682  -1.789  0.00  0.00     0.164 HD
BRANCH  18  21
HETATM   21  C   UNK N   1       4.919  -4.653   0.370  0.00  0.00     0.472 C 
HETATM   22  F   UNK N   1       4.983  -3.307   0.058  0.00  0.00    -0.162 F 
HETATM   23  F   UNK N   1       6.188  -5.078   0.723  0.00  0.00    -0.162 F 
HETATM   24  F   UNK N   1       4.119  -4.826   1.468  0.00  0.00    -0.162 F 
ENDBRANCH  18  21
ENDBRANCH  14  17
ENDBRANCH  11  14
ENDBRANCH   8  10
ENDBRANCH   1   8
BRANCH   4  25
HETATM   25  C   UNK N   1       1.396   1.062  -0.208  0.00  0.00    -0.008 A 
HETATM   26  C   UNK N   1       0.405   2.053  -0.183  0.00  0.00     0.013 A 
HETATM   27  C   UNK N   1       0.734   3.402  -0.186  0.00  0.00     0.003 A 
HETATM   28  C   UNK N   1       2.066   3.793  -0.210  0.00  0.00     0.025 A 
HETATM   29  C   UNK N   1       3.089   2.847  -0.262  0.00  0.00     0.051 A 
HETATM   30  C   UNK N   1       2.783   1.457  -0.281  0.00  0.00     0.072 A 
HETATM   31 Cl   UNK N   1       4.730   3.479  -0.374  0.00  0.00    -0.083 Cl
BRANCH  30  32
HETATM   32  C   UNK N   1       3.896   0.451  -0.440  0.00  0.00     0.295 C 
HETATM   33  O   UNK N   1       3.679  -0.621  -0.983  0.00  0.00    -0.259 OA
BRANCH  32  34
HETATM   34  O   UNK N   1       5.161   0.754  -0.053  0.00  0.00    -0.322 OA
HETATM   35  C   UNK N   1       6.199  -0.142  -0.168  0.00  0.00     0.213 C 
ENDBRANCH  32  34
ENDBRANCH  30  32
ENDBRANCH   4  25
TORSDOF 8
