MODEL 1
REMARK VINA RESULT:      -8.6      0.000      0.000
REMARK  7 active torsions:
REMARK  status: ('A' for Active; 'I' for Inactive)
REMARK    1  A    between atoms: N_4  and  C_24 
REMARK    2  A    between atoms: N_7  and  S_8 
REMARK    3  A    between atoms: S_8  and  C_11 
REMARK    4  A    between atoms: C_15  and  C_17 
REMARK    5  A    between atoms: C_17  and  C_19 
REMARK    6  A    between atoms: C_17  and  O_23 
REMARK    7  A    between atoms: C_29  and  C_30 
ROOT
HETATM    1  C   UNK N   1      34.625  12.354   9.756  0.00  0.00     0.029 C 
HETATM    2  C   UNK N   1      35.037  12.947  11.092  0.00  0.00     0.088 C 
HETATM    3  C   UNK N   1      34.878  11.883  12.197  0.00  0.00     0.143 C 
HETATM    4  N   UNK N   1      36.030  11.974  13.072  0.00  0.00    -0.377 N 
HETATM    5  C   UNK N   1      37.326  11.696  12.478  0.00  0.00     0.138 C 
HETATM    6  C   UNK N   1      37.424  12.394  11.111  0.00  0.00     0.128 C 
HETATM    7  N   UNK N   1      36.422  13.459  11.082  0.00  0.00    -0.199 NA
ENDROOT
BRANCH   7   8
HETATM    8  S   UNK N   1      36.785  14.757   9.940  0.00  0.00     0.244 S 
HETATM    9  O   UNK N   1      38.307  14.683   9.746  0.00  0.00    -0.206 OA
HETATM   10  O   UNK N   1      36.680  16.046  10.770  0.00  0.00    -0.206 OA
BRANCH   8  11
HETATM   11  C   UNK N   1      35.932  14.909   8.382  0.00  0.00     0.075 A 
HETATM   12  C   UNK N   1      36.289  14.096   7.303  0.00  0.00     0.025 A 
HETATM   13  C   UNK N   1      35.692  14.291   6.057  0.00  0.00     0.002 A 
HETATM   14  C   UNK N   1      34.756  15.316   5.882  0.00  0.00     0.010 A 
HETATM   15  C   UNK N   1      34.384  16.131   6.964  0.00  0.00    -0.014 A 
HETATM   16  C   UNK N   1      34.982  15.916   8.214  0.00  0.00     0.035 A 
BRANCH  15  17
HETATM   17  C   UNK N   1      33.377  17.252   6.785  0.00  0.00     0.179 C 
HETATM   18  C   UNK N   1      33.512  18.242   7.937  0.00  0.00     0.061 C 
BRANCH  17  19
HETATM   19  C   UNK N   1      31.942  16.699   6.723  0.00  0.00     0.422 C 
HETATM   20  F   UNK N   1      31.896  15.458   7.334  0.00  0.00    -0.167 F 
HETATM   21  F   UNK N   1      31.552  16.551   5.402  0.00  0.00    -0.167 F 
HETATM   22  F   UNK N   1      31.047  17.543   7.356  0.00  0.00    -0.167 F 
ENDBRANCH  17  19
BRANCH  17  23
HETATM   23  O   UNK N   1      33.631  17.943   5.596  0.00  0.00    -0.376 OA
HETATM   24  H   UNK N   1      33.317  17.585   4.750  0.00  0.00     0.211 HD
ENDBRANCH  17  23
ENDBRANCH  15  17
ENDBRANCH   8  11
ENDBRANCH   7   8
BRANCH   4  25
HETATM   25  C   UNK N   1      35.844  12.438  14.413  0.00  0.00     0.045 A 
HETATM   26  C   UNK N   1      36.551  13.600  14.778  0.00  0.00     0.033 A 
HETATM   27  C   UNK N   1      36.451  14.152  16.051  0.00  0.00     0.044 A 
HETATM   28  C   UNK N   1      35.645  13.549  17.004  0.00  0.00     0.117 A 
HETATM   29  C   UNK N   1      34.957  12.383  16.691  0.00  0.00     0.060 A 
HETATM   30  F   UNK N   1      35.551  14.077  18.246  0.00  0.00    -0.206 F 
HETATM   31  C   UNK N   1      35.033  11.790  15.419  0.00  0.00     0.077 A 
BRANCH  31  32
HETATM   32  C   UNK N   1      34.299  10.459  15.321  0.00  0.00     0.419 C 
HETATM   33  F   UNK N   1      34.917   9.463  14.618  0.00  0.00    -0.166 F 
HETATM   34  F   UNK N   1      34.130   9.966  16.603  0.00  0.00    -0.166 F 
HETATM   35  F   UNK N   1      33.050  10.666  14.766  0.00  0.00    -0.166 F 
ENDBRANCH  31  32
ENDBRANCH   4  25
TORSDOF 7
ENDMDL
MODEL 2
REMARK VINA RESULT:      -8.3     10.770     13.077
REMARK  7 active torsions:
REMARK  status: ('A' for Active; 'I' for Inactive)
REMARK    1  A    between atoms: N_4  and  C_24 
REMARK    2  A    between atoms: N_7  and  S_8 
REMARK    3  A    between atoms: S_8  and  C_11 
REMARK    4  A    between atoms: C_15  and  C_17 
REMARK    5  A    between atoms: C_17  and  C_19 
REMARK    6  A    between atoms: C_17  and  O_23 
REMARK    7  A    between atoms: C_29  and  C_30 
ROOT
HETATM    1  C   UNK N   1      19.354  17.124   8.072  0.00  0.00     0.029 C 
HETATM    2  C   UNK N   1      20.641  16.332   8.216  0.00  0.00     0.088 C 
HETATM    3  C   UNK N   1      20.373  15.063   9.050  0.00  0.00     0.143 C 
HETATM    4  N   UNK N   1      21.084  13.964   8.429  0.00  0.00    -0.377 N 
HETATM    5  C   UNK N   1      20.686  13.606   7.079  0.00  0.00     0.138 C 
HETATM    6  C   UNK N   1      20.501  14.885   6.244  0.00  0.00     0.128 C 
HETATM    7  N   UNK N   1      21.228  15.962   6.913  0.00  0.00    -0.199 NA
ENDROOT
BRANCH   7   8
HETATM    8  S   UNK N   1      21.693  17.288   5.842  0.00  0.00     0.244 S 
HETATM    9  O   UNK N   1      21.521  18.552   6.700  0.00  0.00    -0.206 OA
HETATM   10  O   UNK N   1      20.503  17.449   4.883  0.00  0.00    -0.206 OA
BRANCH   8  11
HETATM   11  C   UNK N   1      23.246  17.296   4.968  0.00  0.00     0.075 A 
HETATM   12  C   UNK N   1      23.530  16.299   4.031  0.00  0.00     0.025 A 
HETATM   13  C   UNK N   1      24.788  16.248   3.428  0.00  0.00     0.002 A 
HETATM   14  C   UNK N   1      25.770  17.180   3.778  0.00  0.00     0.010 A 
HETATM   15  C   UNK N   1      25.489  18.192   4.711  0.00  0.00    -0.014 A 
HETATM   16  C   UNK N   1      24.218  18.239   5.300  0.00  0.00     0.035 A 
BRANCH  15  17
HETATM   17  C   UNK N   1      26.549  19.203   5.107  0.00  0.00     0.179 C 
HETATM   18  C   UNK N   1      27.069  19.906   3.858  0.00  0.00     0.061 C 
BRANCH  17  19
HETATM   19  C   UNK N   1      27.708  18.524   5.858  0.00  0.00     0.422 C 
HETATM   20  F   UNK N   1      28.225  19.396   6.801  0.00  0.00    -0.167 F 
HETATM   21  F   UNK N   1      28.716  18.193   4.969  0.00  0.00    -0.167 F 
HETATM   22  F   UNK N   1      27.288  17.371   6.498  0.00  0.00    -0.167 F 
ENDBRANCH  17  19
BRANCH  17  23
HETATM   23  O   UNK N   1      25.996  20.176   5.946  0.00  0.00    -0.376 OA
HETATM   24  H   UNK N   1      25.967  21.103   5.662  0.00  0.00     0.211 HD
ENDBRANCH  17  23
ENDBRANCH  15  17
ENDBRANCH   8  11
ENDBRANCH   7   8
BRANCH   4  25
HETATM   25  C   UNK N   1      22.193  13.381   9.121  0.00  0.00     0.045 A 
HETATM   26  C   UNK N   1      21.932  12.871  10.408  0.00  0.00     0.033 A 
HETATM   27  C   UNK N   1      22.925  12.277  11.179  0.00  0.00     0.044 A 
HETATM   28  C   UNK N   1      24.218  12.184  10.688  0.00  0.00     0.117 A 
HETATM   29  C   UNK N   1      24.522  12.704   9.436  0.00  0.00     0.060 A 
HETATM   30  F   UNK N   1      25.190  11.615  11.438  0.00  0.00    -0.206 F 
HETATM   31  C   UNK N   1      23.550  13.316   8.626  0.00  0.00     0.077 A 
BRANCH  31  32
HETATM   32  C   UNK N   1      24.114  13.921   7.346  0.00  0.00     0.419 C 
HETATM   33  F   UNK N   1      24.038  15.280   7.220  0.00  0.00    -0.166 F 
HETATM   34  F   UNK N   1      25.461  13.611   7.282  0.00  0.00    -0.166 F 
HETATM   35  F   UNK N   1      23.483  13.352   6.256  0.00  0.00    -0.166 F 
ENDBRANCH  31  32
ENDBRANCH   4  25
TORSDOF 7
ENDMDL
MODEL 3
REMARK VINA RESULT:      -8.2      3.355      5.752
REMARK  7 active torsions:
REMARK  status: ('A' for Active; 'I' for Inactive)
REMARK    1  A    between atoms: N_4  and  C_24 
REMARK    2  A    between atoms: N_7  and  S_8 
REMARK    3  A    between atoms: S_8  and  C_11 
REMARK    4  A    between atoms: C_15  and  C_17 
REMARK    5  A    between atoms: C_17  and  C_19 
REMARK    6  A    between atoms: C_17  and  O_23 
REMARK    7  A    between atoms: C_29  and  C_30 
ROOT
HETATM    1  C   UNK N   1      32.576  13.808   6.131  0.00  0.00     0.029 C 
HETATM    2  C   UNK N   1      33.342  14.238   7.369  0.00  0.00     0.088 C 
HETATM    3  C   UNK N   1      34.165  13.049   7.902  0.00  0.00     0.143 C 
HETATM    4  N   UNK N   1      35.469  13.549   8.294  0.00  0.00    -0.377 N 
HETATM    5  C   UNK N   1      36.291  14.122   7.244  0.00  0.00     0.138 C 
HETATM    6  C   UNK N   1      35.426  15.032   6.355  0.00  0.00     0.128 C 
HETATM    7  N   UNK N   1      34.230  15.390   7.115  0.00  0.00    -0.199 NA
ENDROOT
BRANCH   7   8
HETATM    8  S   UNK N   1      33.460  16.888   6.582  0.00  0.00     0.244 S 
HETATM    9  O   UNK N   1      33.480  16.804   5.047  0.00  0.00    -0.206 OA
HETATM   10  O   UNK N   1      34.524  17.974   6.807  0.00  0.00    -0.206 OA
BRANCH   8  11
HETATM   11  C   UNK N   1      31.864  17.398   7.190  0.00  0.00     0.075 A 
HETATM   12  C   UNK N   1      31.748  17.991   8.449  0.00  0.00     0.025 A 
HETATM   13  C   UNK N   1      30.486  18.291   8.965  0.00  0.00     0.002 A 
HETATM   14  C   UNK N   1      29.338  17.976   8.230  0.00  0.00     0.010 A 
HETATM   15  C   UNK N   1      29.446  17.388   6.959  0.00  0.00    -0.014 A 
HETATM   16  C   UNK N   1      30.720  17.105   6.448  0.00  0.00     0.035 A 
BRANCH  15  17
HETATM   17  C   UNK N   1      28.207  17.034   6.157  0.00  0.00     0.179 C 
HETATM   18  C   UNK N   1      28.353  15.622   5.600  0.00  0.00     0.061 C 
BRANCH  17  19
HETATM   19  C   UNK N   1      27.984  18.039   5.013  0.00  0.00     0.422 C 
HETATM   20  F   UNK N   1      26.632  18.123   4.726  0.00  0.00    -0.167 F 
HETATM   21  F   UNK N   1      28.647  17.611   3.874  0.00  0.00    -0.167 F 
HETATM   22  F   UNK N   1      28.450  19.297   5.348  0.00  0.00    -0.167 F 
ENDBRANCH  17  19
BRANCH  17  23
HETATM   23  O   UNK N   1      27.078  17.053   6.981  0.00  0.00    -0.376 OA
HETATM   24  H   UNK N   1      26.508  16.270   7.043  0.00  0.00     0.211 HD
ENDBRANCH  17  23
ENDBRANCH  15  17
ENDBRANCH   8  11
ENDBRANCH   7   8
BRANCH   4  25
HETATM   25  C   UNK N   1      35.817  13.556   9.682  0.00  0.00     0.045 A 
HETATM   26  C   UNK N   1      36.328  12.352  10.206  0.00  0.00     0.033 A 
HETATM   27  C   UNK N   1      36.707  12.233  11.539  0.00  0.00     0.044 A 
HETATM   28  C   UNK N   1      36.576  13.316  12.394  0.00  0.00     0.117 A 
HETATM   29  C   UNK N   1      36.045  14.511  11.921  0.00  0.00     0.060 A 
HETATM   30  F   UNK N   1      36.934  13.203  13.694  0.00  0.00    -0.206 F 
HETATM   31  C   UNK N   1      35.647  14.673  10.583  0.00  0.00     0.077 A 
BRANCH  31  32
HETATM   32  C   UNK N   1      34.985  16.016  10.301  0.00  0.00     0.419 C 
HETATM   33  F   UNK N   1      35.467  16.731   9.241  0.00  0.00    -0.166 F 
HETATM   34  F   UNK N   1      33.648  15.788  10.027  0.00  0.00    -0.166 F 
HETATM   35  F   UNK N   1      35.069  16.811  11.429  0.00  0.00    -0.166 F 
ENDBRANCH  31  32
ENDBRANCH   4  25
TORSDOF 7
ENDMDL
MODEL 4
REMARK VINA RESULT:      -8.2     11.030     13.367
REMARK  7 active torsions:
REMARK  status: ('A' for Active; 'I' for Inactive)
REMARK    1  A    between atoms: N_4  and  C_24 
REMARK    2  A    between atoms: N_7  and  S_8 
REMARK    3  A    between atoms: S_8  and  C_11 
REMARK    4  A    between atoms: C_15  and  C_17 
REMARK    5  A    between atoms: C_17  and  C_19 
REMARK    6  A    between atoms: C_17  and  O_23 
REMARK    7  A    between atoms: C_29  and  C_30 
ROOT
HETATM    1  C   UNK N   1      25.347  14.444   3.351  0.00  0.00     0.029 C 
HETATM    2  C   UNK N   1      24.560  14.906   4.565  0.00  0.00     0.088 C 
HETATM    3  C   UNK N   1      24.042  13.678   5.340  0.00  0.00     0.143 C 
HETATM    4  N   UNK N   1      24.220  13.937   6.755  0.00  0.00    -0.377 N 
HETATM    5  C   UNK N   1      25.584  14.116   7.221  0.00  0.00     0.138 C 
HETATM    6  C   UNK N   1      26.346  15.022   6.239  0.00  0.00     0.128 C 
HETATM    7  N   UNK N   1      25.357  15.767   5.462  0.00  0.00    -0.199 NA
ENDROOT
BRANCH   7   8
HETATM    8  S   UNK N   1      25.967  17.279   4.782  0.00  0.00     0.244 S 
HETATM    9  O   UNK N   1      27.124  16.848   3.866  0.00  0.00    -0.206 OA
HETATM   10  O   UNK N   1      26.758  17.930   5.928  0.00  0.00    -0.206 OA
BRANCH   8  11
HETATM   11  C   UNK N   1      24.895  18.453   3.976  0.00  0.00     0.075 A 
HETATM   12  C   UNK N   1      25.436  19.556   3.310  0.00  0.00     0.025 A 
HETATM   13  C   UNK N   1      24.590  20.527   2.772  0.00  0.00     0.002 A 
HETATM   14  C   UNK N   1      23.204  20.407   2.919  0.00  0.00     0.010 A 
HETATM   15  C   UNK N   1      22.652  19.297   3.578  0.00  0.00    -0.014 A 
HETATM   16  C   UNK N   1      23.513  18.322   4.103  0.00  0.00     0.035 A 
BRANCH  15  17
HETATM   17  C   UNK N   1      21.151  19.160   3.753  0.00  0.00     0.179 C 
HETATM   18  C   UNK N   1      20.861  18.318   4.991  0.00  0.00     0.061 C 
BRANCH  17  19
HETATM   19  C   UNK N   1      20.507  18.521   2.510  0.00  0.00     0.422 C 
HETATM   20  F   UNK N   1      20.688  19.350   1.416  0.00  0.00    -0.167 F 
HETATM   21  F   UNK N   1      19.147  18.359   2.715  0.00  0.00    -0.167 F 
HETATM   22  F   UNK N   1      21.062  17.285   2.232  0.00  0.00    -0.167 F 
ENDBRANCH  17  19
BRANCH  17  23
HETATM   23  O   UNK N   1      20.573  20.419   3.947  0.00  0.00    -0.376 OA
HETATM   24  H   UNK N   1      19.608  20.509   3.983  0.00  0.00     0.211 HD
ENDBRANCH  17  23
ENDBRANCH  15  17
ENDBRANCH   8  11
ENDBRANCH   7   8
BRANCH   4  25
HETATM   25  C   UNK N   1      23.061  14.114   7.575  0.00  0.00     0.045 A 
HETATM   26  C   UNK N   1      22.225  15.201   7.252  0.00  0.00     0.033 A 
HETATM   27  C   UNK N   1      21.067  15.477   7.971  0.00  0.00     0.044 A 
HETATM   28  C   UNK N   1      20.714  14.676   9.047  0.00  0.00     0.117 A 
HETATM   29  C   UNK N   1      21.531  13.614   9.416  0.00  0.00     0.060 A 
HETATM   30  F   UNK N   1      19.593  14.945   9.755  0.00  0.00    -0.206 F 
HETATM   31  C   UNK N   1      22.711  13.303   8.720  0.00  0.00     0.077 A 
BRANCH  31  32
HETATM   32  C   UNK N   1      23.517  12.178   9.356  0.00  0.00     0.419 C 
HETATM   33  F   UNK N   1      24.151  11.314   8.507  0.00  0.00    -0.166 F 
HETATM   34  F   UNK N   1      24.515  12.748  10.128  0.00  0.00    -0.166 F 
HETATM   35  F   UNK N   1      22.694  11.439  10.185  0.00  0.00    -0.166 F 
ENDBRANCH  31  32
ENDBRANCH   4  25
TORSDOF 7
ENDMDL
MODEL 5
REMARK VINA RESULT:      -8.2      5.165      8.070
REMARK  7 active torsions:
REMARK  status: ('A' for Active; 'I' for Inactive)
REMARK    1  A    between atoms: N_4  and  C_24 
REMARK    2  A    between atoms: N_7  and  S_8 
REMARK    3  A    between atoms: S_8  and  C_11 
REMARK    4  A    between atoms: C_15  and  C_17 
REMARK    5  A    between atoms: C_17  and  C_19 
REMARK    6  A    between atoms: C_17  and  O_23 
REMARK    7  A    between atoms: C_29  and  C_30 
ROOT
HETATM    1  C   UNK N   1      31.217  13.427   4.848  0.00  0.00     0.029 C 
HETATM    2  C   UNK N   1      31.856  14.422   5.800  0.00  0.00     0.088 C 
HETATM    3  C   UNK N   1      33.075  13.769   6.482  0.00  0.00     0.143 C 
HETATM    4  N   UNK N   1      34.140  14.751   6.523  0.00  0.00    -0.377 N 
HETATM    5  C   UNK N   1      34.644  15.224   5.246  0.00  0.00     0.138 C 
HETATM    6  C   UNK N   1      33.463  15.507   4.302  0.00  0.00     0.128 C 
HETATM    7  N   UNK N   1      32.266  15.670   5.125  0.00  0.00    -0.199 NA
ENDROOT
BRANCH   7   8
HETATM    8  S   UNK N   1      30.988  16.617   4.356  0.00  0.00     0.244 S 
HETATM    9  O   UNK N   1      30.903  16.058   2.927  0.00  0.00    -0.206 OA
HETATM   10  O   UNK N   1      31.633  17.983   4.074  0.00  0.00    -0.206 OA
BRANCH   8  11
HETATM   11  C   UNK N   1      29.372  16.793   5.088  0.00  0.00     0.075 A 
HETATM   12  C   UNK N   1      28.710  15.677   5.606  0.00  0.00     0.025 A 
HETATM   13  C   UNK N   1      27.403  15.801   6.080  0.00  0.00     0.002 A 
HETATM   14  C   UNK N   1      26.750  17.037   6.017  0.00  0.00     0.010 A 
HETATM   15  C   UNK N   1      27.412  18.166   5.508  0.00  0.00    -0.014 A 
HETATM   16  C   UNK N   1      28.729  18.030   5.046  0.00  0.00     0.035 A 
BRANCH  15  17
HETATM   17  C   UNK N   1      26.712  19.509   5.425  0.00  0.00     0.179 C 
HETATM   18  C   UNK N   1      27.015  20.155   4.077  0.00  0.00     0.061 C 
BRANCH  17  19
HETATM   19  C   UNK N   1      27.155  20.434   6.572  0.00  0.00     0.422 C 
HETATM   20  F   UNK N   1      26.082  21.204   6.988  0.00  0.00    -0.167 F 
HETATM   21  F   UNK N   1      28.158  21.282   6.133  0.00  0.00    -0.167 F 
HETATM   22  F   UNK N   1      27.631  19.710   7.650  0.00  0.00    -0.167 F 
ENDBRANCH  17  19
BRANCH  17  23
HETATM   23  O   UNK N   1      25.327  19.336   5.514  0.00  0.00    -0.376 OA
HETATM   24  H   UNK N   1      24.957  18.453   5.676  0.00  0.00     0.211 HD
ENDBRANCH  17  23
ENDBRANCH  15  17
ENDBRANCH   8  11
ENDBRANCH   7   8
BRANCH   4  25
HETATM   25  C   UNK N   1      34.547  15.276   7.791  0.00  0.00     0.045 A 
HETATM   26  C   UNK N   1      35.153  14.366   8.681  0.00  0.00     0.033 A 
HETATM   27  C   UNK N   1      35.595  14.754   9.941  0.00  0.00     0.044 A 
HETATM   28  C   UNK N   1      35.434  16.067  10.355  0.00  0.00     0.117 A 
HETATM   29  C   UNK N   1      34.812  16.986   9.519  0.00  0.00     0.060 A 
HETATM   30  F   UNK N   1      35.855  16.448  11.584  0.00  0.00    -0.206 F 
HETATM   31  C   UNK N   1      34.347  16.635   8.240  0.00  0.00     0.077 A 
BRANCH  31  32
HETATM   32  C   UNK N   1      33.594  17.756   7.535  0.00  0.00     0.419 C 
HETATM   33  F   UNK N   1      33.940  18.014   6.238  0.00  0.00    -0.166 F 
HETATM   34  F   UNK N   1      32.251  17.420   7.507  0.00  0.00    -0.166 F 
HETATM   35  F   UNK N   1      33.735  18.926   8.258  0.00  0.00    -0.166 F 
ENDBRANCH  31  32
ENDBRANCH   4  25
TORSDOF 7
ENDMDL
MODEL 6
REMARK VINA RESULT:      -8.1     18.305     21.918
REMARK  7 active torsions:
REMARK  status: ('A' for Active; 'I' for Inactive)
REMARK    1  A    between atoms: N_4  and  C_24 
REMARK    2  A    between atoms: N_7  and  S_8 
REMARK    3  A    between atoms: S_8  and  C_11 
REMARK    4  A    between atoms: C_15  and  C_17 
REMARK    5  A    between atoms: C_17  and  C_19 
REMARK    6  A    between atoms: C_17  and  O_23 
REMARK    7  A    between atoms: C_29  and  C_30 
ROOT
HETATM    1  C   UNK N   1      28.734  24.540  -9.566  0.00  0.00     0.029 C 
HETATM    2  C   UNK N   1      28.229  24.883  -8.176  0.00  0.00     0.088 C 
HETATM    3  C   UNK N   1      28.073  26.412  -8.049  0.00  0.00     0.143 C 
HETATM    4  N   UNK N   1      26.835  26.676  -7.342  0.00  0.00    -0.377 N 
HETATM    5  C   UNK N   1      25.610  26.234  -7.983  0.00  0.00     0.138 C 
HETATM    6  C   UNK N   1      25.809  24.817  -8.548  0.00  0.00     0.128 C 
HETATM    7  N   UNK N   1      26.950  24.219  -7.857  0.00  0.00    -0.199 NA
ENDROOT
BRANCH   7   8
HETATM    8  S   UNK N   1      26.947  22.452  -7.858  0.00  0.00     0.244 S 
HETATM    9  O   UNK N   1      26.410  22.071  -9.247  0.00  0.00    -0.206 OA
HETATM   10  O   UNK N   1      25.742  22.065  -6.987  0.00  0.00    -0.206 OA
BRANCH   8  11
HETATM   11  C   UNK N   1      28.396  21.505  -7.433  0.00  0.00     0.075 A 
HETATM   12  C   UNK N   1      28.578  20.225  -7.962  0.00  0.00     0.025 A 
HETATM   13  C   UNK N   1      29.658  19.446  -7.544  0.00  0.00     0.002 A 
HETATM   14  C   UNK N   1      30.544  19.939  -6.579  0.00  0.00     0.010 A 
HETATM   15  C   UNK N   1      30.374  21.229  -6.050  0.00  0.00    -0.014 A 
HETATM   16  C   UNK N   1      29.292  22.005  -6.489  0.00  0.00     0.035 A 
BRANCH  15  17
HETATM   17  C   UNK N   1      31.322  21.771  -4.997  0.00  0.00     0.179 C 
HETATM   18  C   UNK N   1      32.615  20.964  -5.017  0.00  0.00     0.061 C 
BRANCH  17  19
HETATM   19  C   UNK N   1      30.682  21.719  -3.599  0.00  0.00     0.422 C 
HETATM   20  F   UNK N   1      31.662  21.876  -2.633  0.00  0.00    -0.167 F 
HETATM   21  F   UNK N   1      30.070  20.492  -3.406  0.00  0.00    -0.167 F 
HETATM   22  F   UNK N   1      29.734  22.714  -3.440  0.00  0.00    -0.167 F 
ENDBRANCH  17  19
BRANCH  17  23
HETATM   23  O   UNK N   1      31.644  23.103  -5.280  0.00  0.00    -0.376 OA
HETATM   24  H   UNK N   1      30.939  23.760  -5.389  0.00  0.00     0.211 HD
ENDBRANCH  17  23
ENDBRANCH  15  17
ENDBRANCH   8  11
ENDBRANCH   7   8
BRANCH   4  25
HETATM   25  C   UNK N   1      26.897  27.239  -6.028  0.00  0.00     0.045 A 
HETATM   26  C   UNK N   1      27.237  28.604  -5.947  0.00  0.00     0.033 A 
HETATM   27  C   UNK N   1      27.326  29.268  -4.728  0.00  0.00     0.044 A 
HETATM   28  C   UNK N   1      27.087  28.582  -3.548  0.00  0.00     0.117 A 
HETATM   29  C   UNK N   1      26.779  27.227  -3.586  0.00  0.00     0.060 A 
HETATM   30  F   UNK N   1      27.180  29.221  -2.359  0.00  0.00    -0.206 F 
HETATM   31  C   UNK N   1      26.683  26.517  -4.795  0.00  0.00     0.077 A 
BRANCH  31  32
HETATM   32  C   UNK N   1      26.454  25.022  -4.609  0.00  0.00     0.419 C 
HETATM   33  F   UNK N   1      27.437  24.185  -5.056  0.00  0.00    -0.166 F 
HETATM   34  F   UNK N   1      26.334  24.771  -3.253  0.00  0.00    -0.166 F 
HETATM   35  F   UNK N   1      25.270  24.662  -5.224  0.00  0.00    -0.166 F 
ENDBRANCH  31  32
ENDBRANCH   4  25
TORSDOF 7
ENDMDL
MODEL 7
REMARK VINA RESULT:      -8.0      1.346      2.065
REMARK  7 active torsions:
REMARK  status: ('A' for Active; 'I' for Inactive)
REMARK    1  A    between atoms: N_4  and  C_24 
REMARK    2  A    between atoms: N_7  and  S_8 
REMARK    3  A    between atoms: S_8  and  C_11 
REMARK    4  A    between atoms: C_15  and  C_17 
REMARK    5  A    between atoms: C_17  and  C_19 
REMARK    6  A    between atoms: C_17  and  O_23 
REMARK    7  A    between atoms: C_29  and  C_30 
ROOT
HETATM    1  C   UNK N   1      34.506  11.668   9.875  0.00  0.00     0.029 C 
HETATM    2  C   UNK N   1      34.834  12.444  11.138  0.00  0.00     0.088 C 
HETATM    3  C   UNK N   1      35.002  11.462  12.315  0.00  0.00     0.143 C 
HETATM    4  N   UNK N   1      36.143  11.895  13.096  0.00  0.00    -0.377 N 
HETATM    5  C   UNK N   1      37.432  11.889  12.429  0.00  0.00     0.138 C 
HETATM    6  C   UNK N   1      37.281  12.482  11.017  0.00  0.00     0.128 C 
HETATM    7  N   UNK N   1      36.050  13.270  10.996  0.00  0.00    -0.199 NA
ENDROOT
BRANCH   7   8
HETATM    8  S   UNK N   1      36.021  14.525   9.752  0.00  0.00     0.244 S 
HETATM    9  O   UNK N   1      37.057  14.062   8.716  0.00  0.00    -0.206 OA
HETATM   10  O   UNK N   1      36.774  15.709  10.377  0.00  0.00    -0.206 OA
BRANCH   8  11
HETATM   11  C   UNK N   1      34.505  15.048   8.974  0.00  0.00     0.075 A 
HETATM   12  C   UNK N   1      33.348  15.228   9.738  0.00  0.00     0.025 A 
HETATM   13  C   UNK N   1      32.140  15.533   9.110  0.00  0.00     0.002 A 
HETATM   14  C   UNK N   1      32.082  15.637   7.716  0.00  0.00     0.010 A 
HETATM   15  C   UNK N   1      33.242  15.467   6.942  0.00  0.00    -0.014 A 
HETATM   16  C   UNK N   1      34.452  15.173   7.586  0.00  0.00     0.035 A 
BRANCH  15  17
HETATM   17  C   UNK N   1      33.191  15.567   5.428  0.00  0.00     0.179 C 
HETATM   18  C   UNK N   1      34.467  14.979   4.839  0.00  0.00     0.061 C 
BRANCH  17  19
HETATM   19  C   UNK N   1      33.019  17.029   4.978  0.00  0.00     0.422 C 
HETATM   20  F   UNK N   1      31.693  17.405   5.116  0.00  0.00    -0.167 F 
HETATM   21  F   UNK N   1      33.372  17.155   3.645  0.00  0.00    -0.167 F 
HETATM   22  F   UNK N   1      33.807  17.885   5.726  0.00  0.00    -0.167 F 
ENDBRANCH  17  19
BRANCH  17  23
HETATM   23  O   UNK N   1      32.111  14.828   4.934  0.00  0.00    -0.376 OA
HETATM   24  H   UNK N   1      31.472  15.244   4.334  0.00  0.00     0.211 HD
ENDBRANCH  17  23
ENDBRANCH  15  17
ENDBRANCH   8  11
ENDBRANCH   7   8
BRANCH   4  25
HETATM   25  C   UNK N   1      35.925  12.403  14.416  0.00  0.00     0.045 A 
HETATM   26  C   UNK N   1      36.559  13.621  14.732  0.00  0.00     0.033 A 
HETATM   27  C   UNK N   1      36.421  14.219  15.980  0.00  0.00     0.044 A 
HETATM   28  C   UNK N   1      35.649  13.610  16.957  0.00  0.00     0.117 A 
HETATM   29  C   UNK N   1      35.034  12.392  16.694  0.00  0.00     0.060 A 
HETATM   30  F   UNK N   1      35.519  14.184  18.175  0.00  0.00    -0.206 F 
HETATM   31  C   UNK N   1      35.151  11.751  15.449  0.00  0.00     0.077 A 
BRANCH  31  32
HETATM   32  C   UNK N   1      34.499  10.374  15.407  0.00  0.00     0.419 C 
HETATM   33  F   UNK N   1      34.168   9.811  16.607  0.00  0.00    -0.166 F 
HETATM   34  F   UNK N   1      33.314  10.481  14.700  0.00  0.00    -0.166 F 
HETATM   35  F   UNK N   1      35.329   9.497  14.735  0.00  0.00    -0.166 F 
ENDBRANCH  31  32
ENDBRANCH   4  25
TORSDOF 7
ENDMDL
MODEL 8
REMARK VINA RESULT:      -8.0     10.453     12.850
REMARK  7 active torsions:
REMARK  status: ('A' for Active; 'I' for Inactive)
REMARK    1  A    between atoms: N_4  and  C_24 
REMARK    2  A    between atoms: N_7  and  S_8 
REMARK    3  A    between atoms: S_8  and  C_11 
REMARK    4  A    between atoms: C_15  and  C_17 
REMARK    5  A    between atoms: C_17  and  C_19 
REMARK    6  A    between atoms: C_17  and  O_23 
REMARK    7  A    between atoms: C_29  and  C_30 
ROOT
HETATM    1  C   UNK N   1      20.858  17.629   6.234  0.00  0.00     0.029 C 
HETATM    2  C   UNK N   1      21.824  16.538   6.660  0.00  0.00     0.088 C 
HETATM    3  C   UNK N   1      21.251  15.791   7.881  0.00  0.00     0.143 C 
HETATM    4  N   UNK N   1      21.491  14.375   7.690  0.00  0.00    -0.377 N 
HETATM    5  C   UNK N   1      20.852  13.751   6.546  0.00  0.00     0.138 C 
HETATM    6  C   UNK N   1      21.002  14.662   5.315  0.00  0.00     0.128 C 
HETATM    7  N   UNK N   1      22.111  15.579   5.574  0.00  0.00    -0.199 NA
ENDROOT
BRANCH   7   8
HETATM    8  S   UNK N   1      22.861  16.230   4.113  0.00  0.00     0.244 S 
HETATM    9  O   UNK N   1      21.682  16.513   3.169  0.00  0.00    -0.206 OA
HETATM   10  O   UNK N   1      23.478  15.008   3.415  0.00  0.00    -0.206 OA
BRANCH   8  11
HETATM   11  C   UNK N   1      24.001  17.599   4.166  0.00  0.00     0.075 A 
HETATM   12  C   UNK N   1      23.569  18.887   3.837  0.00  0.00     0.025 A 
HETATM   13  C   UNK N   1      24.487  19.936   3.777  0.00  0.00     0.002 A 
HETATM   14  C   UNK N   1      25.843  19.694   4.025  0.00  0.00     0.010 A 
HETATM   15  C   UNK N   1      26.284  18.405   4.367  0.00  0.00    -0.014 A 
HETATM   16  C   UNK N   1      25.349  17.363   4.436  0.00  0.00     0.035 A 
BRANCH  15  17
HETATM   17  C   UNK N   1      27.753  18.127   4.628  0.00  0.00     0.179 C 
HETATM   18  C   UNK N   1      28.145  16.812   3.965  0.00  0.00     0.061 C 
BRANCH  17  19
HETATM   19  C   UNK N   1      28.043  18.071   6.138  0.00  0.00     0.422 C 
HETATM   20  F   UNK N   1      29.411  18.013   6.346  0.00  0.00    -0.167 F 
HETATM   21  F   UNK N   1      27.469  16.936   6.687  0.00  0.00    -0.167 F 
HETATM   22  F   UNK N   1      27.539  19.181   6.792  0.00  0.00    -0.167 F 
ENDBRANCH  17  19
BRANCH  17  23
HETATM   23  O   UNK N   1      28.540  19.139   4.069  0.00  0.00    -0.376 OA
HETATM   24  H   UNK N   1      28.680  19.969   4.553  0.00  0.00     0.211 HD
ENDBRANCH  17  23
ENDBRANCH  15  17
ENDBRANCH   8  11
ENDBRANCH   7   8
BRANCH   4  25
HETATM   25  C   UNK N   1      22.419  13.709   8.553  0.00  0.00     0.045 A 
HETATM   26  C   UNK N   1      21.942  13.353   9.830  0.00  0.00     0.033 A 
HETATM   27  C   UNK N   1      22.745  12.699  10.759  0.00  0.00     0.044 A 
HETATM   28  C   UNK N   1      24.059  12.390  10.440  0.00  0.00     0.117 A 
HETATM   29  C   UNK N   1      24.575  12.754   9.202  0.00  0.00     0.060 A 
HETATM   30  F   UNK N   1      24.847  11.762  11.343  0.00  0.00    -0.206 F 
HETATM   31  C   UNK N   1      23.800  13.419   8.237  0.00  0.00     0.077 A 
BRANCH  31  32
HETATM   32  C   UNK N   1      24.586  13.829   6.998  0.00  0.00     0.419 C 
HETATM   33  F   UNK N   1      24.086  13.434   5.789  0.00  0.00    -0.166 F 
HETATM   34  F   UNK N   1      24.629  15.212   6.955  0.00  0.00    -0.166 F 
HETATM   35  F   UNK N   1      25.881  13.357   7.103  0.00  0.00    -0.166 F 
ENDBRANCH  31  32
ENDBRANCH   4  25
TORSDOF 7
ENDMDL
MODEL 9
REMARK VINA RESULT:      -8.0      2.321      8.897
REMARK  7 active torsions:
REMARK  status: ('A' for Active; 'I' for Inactive)
REMARK    1  A    between atoms: N_4  and  C_24 
REMARK    2  A    between atoms: N_7  and  S_8 
REMARK    3  A    between atoms: S_8  and  C_11 
REMARK    4  A    between atoms: C_15  and  C_17 
REMARK    5  A    between atoms: C_17  and  C_19 
REMARK    6  A    between atoms: C_17  and  O_23 
REMARK    7  A    between atoms: C_29  and  C_30 
ROOT
HETATM    1  C   UNK N   1      37.114  13.195   9.041  0.00  0.00     0.029 C 
HETATM    2  C   UNK N   1      36.225  14.299   8.498  0.00  0.00     0.088 C 
HETATM    3  C   UNK N   1      35.580  13.836   7.176  0.00  0.00     0.143 C 
HETATM    4  N   UNK N   1      34.194  14.261   7.183  0.00  0.00    -0.377 N 
HETATM    5  C   UNK N   1      33.345  13.704   8.221  0.00  0.00     0.138 C 
HETATM    6  C   UNK N   1      34.095  13.726   9.564  0.00  0.00     0.128 C 
HETATM    7  N   UNK N   1      35.175  14.705   9.454  0.00  0.00    -0.199 NA
ENDROOT
BRANCH   7   8
HETATM    8  S   UNK N   1      35.717  15.355  11.004  0.00  0.00     0.244 S 
HETATM    9  O   UNK N   1      34.910  16.651  11.180  0.00  0.00    -0.206 OA
HETATM   10  O   UNK N   1      37.109  15.939  10.716  0.00  0.00    -0.206 OA
BRANCH   8  11
HETATM   11  C   UNK N   1      35.713  14.374  12.493  0.00  0.00     0.075 A 
HETATM   12  C   UNK N   1      36.423  14.801  13.618  0.00  0.00     0.025 A 
HETATM   13  C   UNK N   1      36.504  13.979  14.744  0.00  0.00     0.002 A 
HETATM   14  C   UNK N   1      35.893  12.721  14.737  0.00  0.00     0.010 A 
HETATM   15  C   UNK N   1      35.169  12.289  13.613  0.00  0.00    -0.014 A 
HETATM   16  C   UNK N   1      35.085  13.129  12.495  0.00  0.00     0.035 A 
BRANCH  15  17
HETATM   17  C   UNK N   1      34.510  10.922  13.590  0.00  0.00     0.179 C 
HETATM   18  C   UNK N   1      33.620  10.768  14.818  0.00  0.00     0.061 C 
BRANCH  17  19
HETATM   19  C   UNK N   1      35.564   9.801  13.550  0.00  0.00     0.422 C 
HETATM   20  F   UNK N   1      35.999   9.528  14.836  0.00  0.00    -0.167 F 
HETATM   21  F   UNK N   1      36.653  10.206  12.797  0.00  0.00    -0.167 F 
HETATM   22  F   UNK N   1      35.050   8.643  12.996  0.00  0.00    -0.167 F 
ENDBRANCH  17  19
BRANCH  17  23
HETATM   23  O   UNK N   1      33.699  10.798  12.456  0.00  0.00    -0.376 OA
HETATM   24  H   UNK N   1      33.438  11.589  11.958  0.00  0.00     0.211 HD
ENDBRANCH  17  23
ENDBRANCH  15  17
ENDBRANCH   8  11
ENDBRANCH   7   8
BRANCH   4  25
HETATM   25  C   UNK N   1      33.778  15.273   6.261  0.00  0.00     0.045 A 
HETATM   26  C   UNK N   1      33.656  14.881   4.913  0.00  0.00     0.033 A 
HETATM   27  C   UNK N   1      33.256  15.771   3.922  0.00  0.00     0.044 A 
HETATM   28  C   UNK N   1      32.973  17.088   4.250  0.00  0.00     0.117 A 
HETATM   29  C   UNK N   1      33.113  17.520   5.563  0.00  0.00     0.060 A 
HETATM   30  F   UNK N   1      32.592  17.960   3.288  0.00  0.00    -0.206 F 
HETATM   31  C   UNK N   1      33.518  16.656   6.594  0.00  0.00     0.077 A 
BRANCH  31  32
HETATM   32  C   UNK N   1      33.721  17.354   7.933  0.00  0.00     0.419 C 
HETATM   33  F   UNK N   1      35.001  17.424   8.406  0.00  0.00    -0.166 F 
HETATM   34  F   UNK N   1      33.295  18.665   7.802  0.00  0.00    -0.166 F 
HETATM   35  F   UNK N   1      32.941  16.736   8.892  0.00  0.00    -0.166 F 
ENDBRANCH  31  32
ENDBRANCH   4  25
TORSDOF 7
ENDMDL
