MODEL 1
REMARK VINA RESULT:      -4.9      0.000      0.000
REMARK  5 active torsions:
REMARK  status: ('A' for Active; 'I' for Inactive)
REMARK    1  A    between atoms: C_2  and  C_4 
REMARK    2  A    between atoms: C_4  and  C_5 
REMARK    3  A    between atoms: C_5  and  O_6 
REMARK    4  A    between atoms: O_6  and  C_7 
REMARK    5  A    between atoms: C_7  and  C_9 
ROOT
HETATM    1  C   UNK N   1      22.598  12.008  11.096  0.00  0.00     0.110 C 
HETATM    2  C   UNK N   1      23.398  11.656  10.089  0.00  0.00     0.042 C 
HETATM    3  C   UNK N   1      23.131  12.020  12.435  0.00  0.00     0.105 C 
HETATM    4  N   UNK N   1      23.523  12.042  13.521  0.00  0.00    -0.191 NA
ENDROOT
BRANCH   1   5
HETATM    5  C   UNK N   1      21.168  12.393  10.910  0.00  0.00     0.303 C 
HETATM    6  O   UNK N   1      20.370  12.081  11.778  0.00  0.00    -0.259 OA
BRANCH   5   7
HETATM    7  O   UNK N   1      20.698  13.070   9.835  0.00  0.00    -0.317 OA
BRANCH   7   8
HETATM    8  C   UNK N   1      20.953  14.376   9.512  0.00  0.00     0.179 C 
BRANCH   8   9
HETATM    9  C   UNK N   1      19.668  15.192   9.339  0.00  0.00     0.031 C 
BRANCH   9  10
HETATM   10  C   UNK N   1      19.683  16.482   8.497  0.00  0.00    -0.021 C 
HETATM   11  C   UNK N   1      19.902  16.317   7.012  0.00  0.00     0.009 C 
HETATM   12  C   UNK N   1      19.498  17.903   9.012  0.00  0.00     0.009 C 
ENDBRANCH   9  10
ENDBRANCH   8   9
ENDBRANCH   7   8
ENDBRANCH   5   7
ENDBRANCH   1   5
TORSDOF 5
ENDMDL
MODEL 2
REMARK VINA RESULT:      -4.8     18.140     19.537
REMARK  5 active torsions:
REMARK  status: ('A' for Active; 'I' for Inactive)
REMARK    1  A    between atoms: C_2  and  C_4 
REMARK    2  A    between atoms: C_4  and  C_5 
REMARK    3  A    between atoms: C_5  and  O_6 
REMARK    4  A    between atoms: O_6  and  C_7 
REMARK    5  A    between atoms: C_7  and  C_9 
ROOT
HETATM    1  C   UNK N   1      28.772  23.785  -3.705  0.00  0.00     0.110 C 
HETATM    2  C   UNK N   1      29.154  23.497  -4.950  0.00  0.00     0.042 C 
HETATM    3  C   UNK N   1      29.605  23.364  -2.608  0.00  0.00     0.105 C 
HETATM    4  N   UNK N   1      30.247  23.043  -1.703  0.00  0.00    -0.191 NA
ENDROOT
BRANCH   1   5
HETATM    5  C   UNK N   1      27.516  24.525  -3.385  0.00  0.00     0.303 C 
HETATM    6  O   UNK N   1      26.642  23.936  -2.769  0.00  0.00    -0.259 OA
BRANCH   5   7
HETATM    7  O   UNK N   1      27.283  25.812  -3.735  0.00  0.00    -0.317 OA
BRANCH   7   8
HETATM    8  C   UNK N   1      26.333  26.646  -3.210  0.00  0.00     0.179 C 
BRANCH   8   9
HETATM    9  C   UNK N   1      25.796  27.640  -4.245  0.00  0.00     0.031 C 
BRANCH   9  10
HETATM   10  C   UNK N   1      26.277  27.563  -5.707  0.00  0.00    -0.021 C 
HETATM   11  C   UNK N   1      25.552  26.590  -6.606  0.00  0.00     0.009 C 
HETATM   12  C   UNK N   1      27.406  28.369  -6.333  0.00  0.00     0.009 C 
ENDBRANCH   9  10
ENDBRANCH   8   9
ENDBRANCH   7   8
ENDBRANCH   5   7
ENDBRANCH   1   5
TORSDOF 5
ENDMDL
MODEL 3
REMARK VINA RESULT:      -4.7     18.013     18.543
REMARK  5 active torsions:
REMARK  status: ('A' for Active; 'I' for Inactive)
REMARK    1  A    between atoms: C_2  and  C_4 
REMARK    2  A    between atoms: C_4  and  C_5 
REMARK    3  A    between atoms: C_5  and  O_6 
REMARK    4  A    between atoms: O_6  and  C_7 
REMARK    5  A    between atoms: C_7  and  C_9 
ROOT
HETATM    1  C   UNK N   1      30.678  21.926  -3.260  0.00  0.00     0.110 C 
HETATM    2  C   UNK N   1      30.292  21.442  -4.442  0.00  0.00     0.042 C 
HETATM    3  C   UNK N   1      31.989  21.591  -2.767  0.00  0.00     0.105 C 
HETATM    4  N   UNK N   1      33.034  21.344  -2.340  0.00  0.00    -0.191 NA
ENDROOT
BRANCH   1   5
HETATM    5  C   UNK N   1      29.816  22.803  -2.415  0.00  0.00     0.303 C 
HETATM    6  O   UNK N   1      30.242  23.150  -1.325  0.00  0.00    -0.259 OA
BRANCH   5   7
HETATM    7  O   UNK N   1      28.587  23.240  -2.780  0.00  0.00    -0.317 OA
BRANCH   7   8
HETATM    8  C   UNK N   1      28.304  24.282  -3.622  0.00  0.00     0.179 C 
BRANCH   8   9
HETATM    9  C   UNK N   1      26.804  24.589  -3.682  0.00  0.00     0.031 C 
BRANCH   9  10
HETATM   10  C   UNK N   1      26.065  24.560  -5.033  0.00  0.00    -0.021 C 
HETATM   11  C   UNK N   1      25.365  25.833  -5.447  0.00  0.00     0.009 C 
HETATM   12  C   UNK N   1      25.971  23.381  -5.990  0.00  0.00     0.009 C 
ENDBRANCH   9  10
ENDBRANCH   8   9
ENDBRANCH   7   8
ENDBRANCH   5   7
ENDBRANCH   1   5
TORSDOF 5
ENDMDL
MODEL 4
REMARK VINA RESULT:      -4.7     12.990     13.720
REMARK  5 active torsions:
REMARK  status: ('A' for Active; 'I' for Inactive)
REMARK    1  A    between atoms: C_2  and  C_4 
REMARK    2  A    between atoms: C_4  and  C_5 
REMARK    3  A    between atoms: C_5  and  O_6 
REMARK    4  A    between atoms: O_6  and  C_7 
REMARK    5  A    between atoms: C_7  and  C_9 
ROOT
HETATM    1  C   UNK N   1      34.374  15.271  10.359  0.00  0.00     0.110 C 
HETATM    2  C   UNK N   1      33.503  14.761   9.487  0.00  0.00     0.042 C 
HETATM    3  C   UNK N   1      34.682  14.522  11.551  0.00  0.00     0.105 C 
HETATM    4  N   UNK N   1      34.954  13.951  12.517  0.00  0.00    -0.191 NA
ENDROOT
BRANCH   1   5
HETATM    5  C   UNK N   1      35.053  16.585  10.164  0.00  0.00     0.303 C 
HETATM    6  O   UNK N   1      36.199  16.706  10.566  0.00  0.00    -0.259 OA
BRANCH   5   7
HETATM    7  O   UNK N   1      34.478  17.656   9.568  0.00  0.00    -0.317 OA
BRANCH   7   8
HETATM    8  C   UNK N   1      34.729  18.127   8.307  0.00  0.00     0.179 C 
BRANCH   8   9
HETATM    9  C   UNK N   1      33.519  17.975   7.379  0.00  0.00     0.031 C 
BRANCH   9  10
HETATM   10  C   UNK N   1      33.653  17.188   6.062  0.00  0.00    -0.021 C 
HETATM   11  C   UNK N   1      34.529  15.958   6.096  0.00  0.00     0.009 C 
HETATM   12  C   UNK N   1      32.991  17.526   4.734  0.00  0.00     0.009 C 
ENDBRANCH   9  10
ENDBRANCH   8   9
ENDBRANCH   7   8
ENDBRANCH   5   7
ENDBRANCH   1   5
TORSDOF 5
ENDMDL
MODEL 5
REMARK VINA RESULT:      -4.7      2.733      5.404
REMARK  5 active torsions:
REMARK  status: ('A' for Active; 'I' for Inactive)
REMARK    1  A    between atoms: C_2  and  C_4 
REMARK    2  A    between atoms: C_4  and  C_5 
REMARK    3  A    between atoms: C_5  and  O_6 
REMARK    4  A    between atoms: O_6  and  C_7 
REMARK    5  A    between atoms: C_7  and  C_9 
ROOT
HETATM    1  C   UNK N   1      20.794  15.501   8.443  0.00  0.00     0.110 C 
HETATM    2  C   UNK N   1      21.538  15.225   7.370  0.00  0.00     0.042 C 
HETATM    3  C   UNK N   1      20.281  16.837   8.607  0.00  0.00     0.105 C 
HETATM    4  N   UNK N   1      19.851  17.897   8.771  0.00  0.00    -0.191 NA
ENDROOT
BRANCH   1   5
HETATM    5  C   UNK N   1      20.464  14.492   9.491  0.00  0.00     0.303 C 
HETATM    6  O   UNK N   1      19.288  14.305   9.760  0.00  0.00    -0.259 OA
BRANCH   5   7
HETATM    7  O   UNK N   1      21.387  13.767  10.166  0.00  0.00    -0.317 OA
BRANCH   7   8
HETATM    8  C   UNK N   1      21.247  12.486  10.629  0.00  0.00     0.179 C 
BRANCH   8   9
HETATM    9  C   UNK N   1      22.585  11.745  10.701  0.00  0.00     0.031 C 
BRANCH   9  10
HETATM   10  C   UNK N   1      23.638  11.947   9.594  0.00  0.00    -0.021 C 
HETATM   11  C   UNK N   1      24.799  12.854   9.924  0.00  0.00     0.009 C 
HETATM   12  C   UNK N   1      23.623  11.326   8.205  0.00  0.00     0.009 C 
ENDBRANCH   9  10
ENDBRANCH   8   9
ENDBRANCH   7   8
ENDBRANCH   5   7
ENDBRANCH   1   5
TORSDOF 5
ENDMDL
MODEL 6
REMARK VINA RESULT:      -4.7     14.374     15.995
REMARK  5 active torsions:
REMARK  status: ('A' for Active; 'I' for Inactive)
REMARK    1  A    between atoms: C_2  and  C_4 
REMARK    2  A    between atoms: C_4  and  C_5 
REMARK    3  A    between atoms: C_5  and  O_6 
REMARK    4  A    between atoms: O_6  and  C_7 
REMARK    5  A    between atoms: C_7  and  C_9 
ROOT
HETATM    1  C   UNK N   1      36.589  13.027  14.710  0.00  0.00     0.110 C 
HETATM    2  C   UNK N   1      37.437  12.017  14.512  0.00  0.00     0.042 C 
HETATM    3  C   UNK N   1      37.075  14.230  15.336  0.00  0.00     0.105 C 
HETATM    4  N   UNK N   1      37.429  15.211  15.835  0.00  0.00    -0.191 NA
ENDROOT
BRANCH   1   5
HETATM    5  C   UNK N   1      35.151  12.977  14.314  0.00  0.00     0.303 C 
HETATM    6  O   UNK N   1      34.821  13.524  13.274  0.00  0.00    -0.259 OA
BRANCH   5   7
HETATM    7  O   UNK N   1      34.185  12.362  15.038  0.00  0.00    -0.317 OA
BRANCH   7   8
HETATM    8  C   UNK N   1      33.778  11.060  14.923  0.00  0.00     0.179 C 
BRANCH   8   9
HETATM    9  C   UNK N   1      34.651  10.106  15.746  0.00  0.00     0.031 C 
BRANCH   9  10
HETATM   10  C   UNK N   1      34.821  10.330  17.260  0.00  0.00    -0.021 C 
HETATM   11  C   UNK N   1      34.358   9.213  18.165  0.00  0.00     0.009 C 
HETATM   12  C   UNK N   1      35.408  11.562  17.933  0.00  0.00     0.009 C 
ENDBRANCH   9  10
ENDBRANCH   8   9
ENDBRANCH   7   8
ENDBRANCH   5   7
ENDBRANCH   1   5
TORSDOF 5
ENDMDL
MODEL 7
REMARK VINA RESULT:      -4.6     12.139     12.989
REMARK  5 active torsions:
REMARK  status: ('A' for Active; 'I' for Inactive)
REMARK    1  A    between atoms: C_2  and  C_4 
REMARK    2  A    between atoms: C_4  and  C_5 
REMARK    3  A    between atoms: C_5  and  O_6 
REMARK    4  A    between atoms: O_6  and  C_7 
REMARK    5  A    between atoms: C_7  and  C_9 
ROOT
HETATM    1  C   UNK N   1      33.672  17.529   8.086  0.00  0.00     0.110 C 
HETATM    2  C   UNK N   1      32.431  17.940   8.348  0.00  0.00     0.042 C 
HETATM    3  C   UNK N   1      34.602  17.387   9.178  0.00  0.00     0.105 C 
HETATM    4  N   UNK N   1      35.375  17.263  10.027  0.00  0.00    -0.191 NA
ENDROOT
BRANCH   1   5
HETATM    5  C   UNK N   1      34.153  17.204   6.712  0.00  0.00     0.303 C 
HETATM    6  O   UNK N   1      35.002  16.335   6.590  0.00  0.00    -0.259 OA
BRANCH   5   7
HETATM    7  O   UNK N   1      33.708  17.813   5.587  0.00  0.00    -0.317 OA
BRANCH   7   8
HETATM    8  C   UNK N   1      33.056  17.223   4.538  0.00  0.00     0.179 C 
BRANCH   8   9
HETATM    9  C   UNK N   1      31.588  17.654   4.452  0.00  0.00     0.031 C 
BRANCH   9  10
HETATM   10  C   UNK N   1      30.531  16.966   5.336  0.00  0.00    -0.021 C 
HETATM   11  C   UNK N   1      29.215  17.689   5.501  0.00  0.00     0.009 C 
HETATM   12  C   UNK N   1      30.681  15.635   6.059  0.00  0.00     0.009 C 
ENDBRANCH   9  10
ENDBRANCH   8   9
ENDBRANCH   7   8
ENDBRANCH   5   7
ENDBRANCH   1   5
TORSDOF 5
ENDMDL
MODEL 8
REMARK VINA RESULT:      -4.6     12.140     13.070
REMARK  5 active torsions:
REMARK  status: ('A' for Active; 'I' for Inactive)
REMARK    1  A    between atoms: C_2  and  C_4 
REMARK    2  A    between atoms: C_4  and  C_5 
REMARK    3  A    between atoms: C_5  and  O_6 
REMARK    4  A    between atoms: O_6  and  C_7 
REMARK    5  A    between atoms: C_7  and  C_9 
ROOT
HETATM    1  C   UNK N   1      33.241  17.356   8.526  0.00  0.00     0.110 C 
HETATM    2  C   UNK N   1      33.549  16.203   9.122  0.00  0.00     0.042 C 
HETATM    3  C   UNK N   1      31.903  17.873   8.664  0.00  0.00     0.105 C 
HETATM    4  N   UNK N   1      30.841  18.319   8.753  0.00  0.00    -0.191 NA
ENDROOT
BRANCH   1   5
HETATM    5  C   UNK N   1      34.215  18.145   7.716  0.00  0.00     0.303 C 
HETATM    6  O   UNK N   1      34.856  19.018   8.278  0.00  0.00    -0.259 OA
BRANCH   5   7
HETATM    7  O   UNK N   1      34.434  17.954   6.393  0.00  0.00    -0.317 OA
BRANCH   7   8
HETATM    8  C   UNK N   1      33.850  17.008   5.593  0.00  0.00     0.179 C 
BRANCH   8   9
HETATM    9  C   UNK N   1      32.751  17.600   4.704  0.00  0.00     0.031 C 
BRANCH   9  10
HETATM   10  C   UNK N   1      31.460  16.801   4.441  0.00  0.00    -0.021 C 
HETATM   11  C   UNK N   1      30.723  16.289   5.656  0.00  0.00     0.009 C 
HETATM   12  C   UNK N   1      30.855  16.479   3.082  0.00  0.00     0.009 C 
ENDBRANCH   9  10
ENDBRANCH   8   9
ENDBRANCH   7   8
ENDBRANCH   5   7
ENDBRANCH   1   5
TORSDOF 5
ENDMDL
MODEL 9
REMARK VINA RESULT:      -4.5     11.620     12.365
REMARK  5 active torsions:
REMARK  status: ('A' for Active; 'I' for Inactive)
REMARK    1  A    between atoms: C_2  and  C_4 
REMARK    2  A    between atoms: C_4  and  C_5 
REMARK    3  A    between atoms: C_5  and  O_6 
REMARK    4  A    between atoms: O_6  and  C_7 
REMARK    5  A    between atoms: C_7  and  C_9 
ROOT
HETATM    1  C   UNK N   1      33.369  17.515   7.677  0.00  0.00     0.110 C 
HETATM    2  C   UNK N   1      32.635  16.828   8.553  0.00  0.00     0.042 C 
HETATM    3  C   UNK N   1      34.391  18.401   8.172  0.00  0.00     0.105 C 
HETATM    4  N   UNK N   1      35.220  19.122   8.531  0.00  0.00    -0.191 NA
ENDROOT
BRANCH   1   5
HETATM    5  C   UNK N   1      33.187  17.414   6.199  0.00  0.00     0.303 C 
HETATM    6  O   UNK N   1      34.059  17.873   5.479  0.00  0.00    -0.259 OA
BRANCH   5   7
HETATM    7  O   UNK N   1      32.113  16.843   5.604  0.00  0.00    -0.317 OA
BRANCH   7   8
HETATM    8  C   UNK N   1      31.432  17.316   4.514  0.00  0.00     0.179 C 
BRANCH   8   9
HETATM    9  C   UNK N   1      30.010  17.762   4.867  0.00  0.00     0.031 C 
BRANCH   9  10
HETATM   10  C   UNK N   1      29.296  17.161   6.092  0.00  0.00    -0.021 C 
HETATM   11  C   UNK N   1      28.631  15.820   5.896  0.00  0.00     0.009 C 
HETATM   12  C   UNK N   1      29.195  17.783   7.478  0.00  0.00     0.009 C 
ENDBRANCH   9  10
ENDBRANCH   8   9
ENDBRANCH   7   8
ENDBRANCH   5   7
ENDBRANCH   1   5
TORSDOF 5
ENDMDL
