REMARK  4 active torsions:
REMARK  status: ('A' for Active; 'I' for Inactive)
REMARK    1  A    between atoms: C_2  and  C_4 
REMARK    2  A    between atoms: C_9  and  C_10 
REMARK    3  A    between atoms: N_19  and  N_23 
REMARK    4  A    between atoms: N_23  and  S_24 
ROOT
HETATM    1  C   UNK N   1      -1.625  -1.982  -0.007  0.00  0.00    -0.040 A 
HETATM    2  C   UNK N   1      -0.380  -2.650   0.052  0.00  0.00     0.039 A 
HETATM    3  C   UNK N   1       0.823  -1.942  -0.004  0.00  0.00     0.052 A 
HETATM    4  C   UNK N   1       0.798  -0.553  -0.146  0.00  0.00     0.062 A 
HETATM    5  C   UNK N   1      -0.419   0.118  -0.167  0.00  0.00     0.033 A 
HETATM    6  C   UNK N   1      -1.640  -0.553  -0.089  0.00  0.00    -0.000 A 
HETATM    7  C   UNK N   1       1.999   0.140  -0.306  0.00  0.00     0.283 A 
HETATM    8  O   UNK N   1       1.979   1.344  -0.500  0.00  0.00    -0.265 OA
HETATM    9  N   UNK N   1       3.197  -0.544  -0.286  0.00  0.00    -0.158 N 
HETATM   10  C   UNK N   1       3.198  -1.912  -0.100  0.00  0.00     0.349 A 
HETATM   11  O   UNK N   1       4.248  -2.531  -0.091  0.00  0.00    -0.244 OA
HETATM   12  N   UNK N   1       2.012  -2.594   0.031  0.00  0.00    -0.306 N 
HETATM   13  H   UNK N   1       2.026  -3.571   0.154  0.00  0.00     0.171 HD
ENDROOT
BRANCH   6  14
HETATM   14  C   UNK N   1      -2.885   0.284  -0.144  0.00  0.00     0.062 A 
HETATM   15  C   UNK N   1      -4.183  -0.179  -0.253  0.00  0.00     0.050 A 
HETATM   16  C   UNK N   1      -4.973   0.961  -0.265  0.00  0.00     0.109 A 
HETATM   17  N   UNK N   1      -4.178   2.043  -0.165  0.00  0.00    -0.310 N 
HETATM   18  N   UNK N   1      -2.925   1.638  -0.095  0.00  0.00    -0.296 N 
ATOM     19  HN  UNK N   1      -4.493   3.013  -0.148  1.00  0.00     0.186 HD
HETATM   20  C   UNK N   1      -1.818   2.575   0.037  0.00  0.00     0.178 C 
ENDBRANCH   6  14
BRANCH   1  21
HETATM   21  C   UNK N   1      -2.900  -2.803   0.004  0.00  0.00     0.011 C 
HETATM   22  C   UNK N   1      -3.616  -2.693   1.337  0.00  0.00     0.015 C 
HETATM   23  C   UNK N   1      -2.695  -4.276  -0.328  0.00  0.00     0.015 C 
ENDBRANCH   1  21
BRANCH   9  24
HETATM   24  N   UNK N   1       4.414   0.118  -0.567  0.00  0.00    -0.213 N 
HETATM   25  H   UNK N   1       5.000  -0.112  -1.324  0.00  0.00     0.200 HD
BRANCH  24  26
HETATM   26  S   UNK N   1       4.769   1.409   0.601  0.00  0.00     0.240 S 
HETATM   27  O   UNK N   1       4.840   2.328  -0.627  0.00  0.00    -0.205 OA
HETATM   28  O   UNK N   1       6.292   1.561   0.727  0.00  0.00    -0.205 OA
HETATM   29  C   UNK N   1       3.720   2.752   1.234  0.00  0.00     0.187 C 
ENDBRANCH  24  26
ENDBRANCH   9  24
TORSDOF 4
