MODEL 1
REMARK VINA RESULT:      -8.2      0.000      0.000
REMARK  4 active torsions:
REMARK  status: ('A' for Active; 'I' for Inactive)
REMARK    1  A    between atoms: C_5  and  C_8 
REMARK    2  A    between atoms: C_9  and  N_25 
REMARK    3  A    between atoms: C_12  and  C_15 
REMARK       I    between atoms: N_25  and  C_26 
REMARK    4  A    between atoms: C_26  and  C_28 
ROOT
HETATM    1  C   UNK N   1      21.097  18.266   4.631  0.00  0.00     0.175 A 
HETATM    2  N   UNK N   1      21.660  19.185   3.830  0.00  0.00    -0.328 N 
HETATM    3  C   UNK N   1      20.929  19.131   2.705  0.00  0.00     0.131 A 
HETATM    4  C   UNK N   1      19.950  18.171   2.816  0.00  0.00     0.131 A 
HETATM    5  N   UNK N   1      20.058  17.628   4.038  0.00  0.00    -0.345 N 
ATOM      6  HN  UNK N   1      19.480  16.889   4.438  1.00  0.00     0.167 HD
HETATM    7  C   UNK N   1      21.109  20.002   1.580  0.00  0.00     0.119 C 
HETATM    8  N   UNK N   1      21.210  20.677   0.645  0.00  0.00    -0.190 NA
HETATM    9  H   UNK N   1      22.432  19.765   4.023  0.00  0.00     0.168 HD
ENDROOT
BRANCH   1  10
HETATM   10  C   UNK N   1      21.454  18.093   6.060  0.00  0.00     0.290 C 
HETATM   11  N   UNK N   1      22.161  17.000   6.460  0.00  0.00    -0.318 N 
HETATM   12  H   UNK N   1      22.587  16.998   7.347  0.00  0.00     0.169 HD
HETATM   13  O   UNK N   1      21.069  18.902   6.889  0.00  0.00    -0.264 OA
BRANCH  11  14
HETATM   14  C   UNK N   1      22.297  15.853   5.612  0.00  0.00     0.062 A 
HETATM   15  C   UNK N   1      23.439  15.572   4.800  0.00  0.00     0.065 A 
HETATM   16  N   UNK N   1      23.431  14.434   4.009  0.00  0.00    -0.357 N 
HETATM   17  C   UNK N   1      22.337  13.590   4.006  0.00  0.00     0.014 A 
ATOM     18  HN  UNK N   1      24.239  14.217   3.424  1.00  0.00     0.166 HD
HETATM   19  C   UNK N   1      21.288  13.823   4.866  0.00  0.00     0.027 A 
HETATM   20  C   UNK N   1      21.281  14.920   5.664  0.00  0.00     0.034 A 
BRANCH  15  21
HETATM   21  C   UNK N   1      24.682  16.355   5.023  0.00  0.00    -0.033 C 
HETATM   22  C   UNK N   1      24.961  17.431   4.022  0.00  0.00     0.041 C 
HETATM   23  C   UNK N   1      25.906  16.804   3.006  0.00  0.00     0.013 C 
HETATM   24  C   UNK N   1      27.255  16.493   3.686  0.00  0.00    -0.044 C 
HETATM   25  C   UNK N   1      28.074  15.648   2.725  0.00  0.00     0.015 C 
HETATM   26  C   UNK N   1      27.148  15.816   5.070  0.00  0.00     0.036 C 
HETATM   27  C   UNK N   1      27.988  17.780   3.961  0.00  0.00     0.015 C 
HETATM   28  C   UNK N   1      25.723  15.683   5.556  0.00  0.00    -0.017 C 
ENDBRANCH  15  21
BRANCH  17  29
HETATM   29  C   UNK N   1      22.094  12.438   3.067  0.00  0.00     0.041 C 
HETATM   30  C   UNK N   1      20.665  12.583   2.540  0.00  0.00     0.048 C 
HETATM   31  C   UNK N   1      20.531  12.496   1.020  0.00  0.00     0.055 C 
HETATM   32  O   UNK N   1      21.553  13.138   0.287  0.00  0.00    -0.371 OA
HETATM   33  C   UNK N   1      19.251  13.215   0.635  0.00  0.00     0.045 C 
HETATM   34  C   UNK N   1      20.442  11.029   0.634  0.00  0.00     0.045 C 
HETATM   35  C   UNK N   1      22.884  12.912   0.708  0.00  0.00     0.055 C 
HETATM   36  C   UNK N   1      23.077  12.085   1.977  0.00  0.00     0.048 C 
HETATM   37  C   UNK N   1      23.657  12.126  -0.356  0.00  0.00     0.045 C 
HETATM   38  C   UNK N   1      23.438  14.312   0.880  0.00  0.00     0.045 C 
ENDBRANCH  17  29
ENDBRANCH  11  14
ENDBRANCH   1  10
TORSDOF 4
ENDMDL
MODEL 2
REMARK VINA RESULT:      -8.2      2.462      4.001
REMARK  4 active torsions:
REMARK  status: ('A' for Active; 'I' for Inactive)
REMARK    1  A    between atoms: C_5  and  C_8 
REMARK    2  A    between atoms: C_9  and  N_25 
REMARK    3  A    between atoms: C_12  and  C_15 
REMARK       I    between atoms: N_25  and  C_26 
REMARK    4  A    between atoms: C_26  and  C_28 
ROOT
HETATM    1  C   UNK N   1      21.842  18.004   5.702  0.00  0.00     0.175 A 
HETATM    2  N   UNK N   1      23.150  17.709   5.772  0.00  0.00    -0.328 N 
HETATM    3  C   UNK N   1      23.637  18.095   4.582  0.00  0.00     0.131 A 
HETATM    4  C   UNK N   1      22.628  18.596   3.792  0.00  0.00     0.131 A 
HETATM    5  N   UNK N   1      21.494  18.539   4.506  0.00  0.00    -0.345 N 
ATOM      6  HN  UNK N   1      20.564  18.835   4.211  1.00  0.00     0.167 HD
HETATM    7  C   UNK N   1      25.025  18.050   4.222  0.00  0.00     0.119 C 
HETATM    8  N   UNK N   1      26.130  18.038   3.880  0.00  0.00    -0.190 NA
HETATM    9  H   UNK N   1      23.640  17.302   6.523  0.00  0.00     0.168 HD
ENDROOT
BRANCH   1  10
HETATM   10  C   UNK N   1      20.919  17.921   6.860  0.00  0.00     0.290 C 
HETATM   11  N   UNK N   1      20.333  16.736   7.183  0.00  0.00    -0.318 N 
HETATM   12  H   UNK N   1      19.911  16.630   8.066  0.00  0.00     0.169 HD
HETATM   13  O   UNK N   1      20.640  18.928   7.492  0.00  0.00    -0.264 OA
BRANCH  11  14
HETATM   14  C   UNK N   1      20.320  15.638   6.262  0.00  0.00     0.062 A 
HETATM   15  C   UNK N   1      21.175  14.496   6.345  0.00  0.00     0.065 A 
HETATM   16  N   UNK N   1      21.072  13.514   5.374  0.00  0.00    -0.357 N 
HETATM   17  C   UNK N   1      20.161  13.639   4.344  0.00  0.00     0.014 A 
ATOM     18  HN  UNK N   1      21.674  12.691   5.419  1.00  0.00     0.166 HD
HETATM   19  C   UNK N   1      19.280  14.697   4.332  0.00  0.00     0.027 A 
HETATM   20  C   UNK N   1      19.347  15.662   5.283  0.00  0.00     0.034 A 
BRANCH  15  21
HETATM   21  C   UNK N   1      21.951  14.276   7.593  0.00  0.00    -0.033 C 
HETATM   22  C   UNK N   1      23.440  14.287   7.444  0.00  0.00     0.041 C 
HETATM   23  C   UNK N   1      23.843  12.826   7.304  0.00  0.00     0.013 C 
HETATM   24  C   UNK N   1      23.551  12.085   8.624  0.00  0.00    -0.044 C 
HETATM   25  C   UNK N   1      23.725  10.596   8.368  0.00  0.00     0.015 C 
HETATM   26  C   UNK N   1      22.172  12.384   9.251  0.00  0.00     0.036 C 
HETATM   27  C   UNK N   1      24.537  12.524   9.675  0.00  0.00     0.015 C 
HETATM   28  C   UNK N   1      21.399  13.445   8.502  0.00  0.00    -0.017 C 
ENDBRANCH  15  21
BRANCH  17  29
HETATM   29  C   UNK N   1      20.065  12.770   3.118  0.00  0.00     0.041 C 
HETATM   30  C   UNK N   1      18.945  13.343   2.247  0.00  0.00     0.048 C 
HETATM   31  C   UNK N   1      19.323  13.571   0.785  0.00  0.00     0.055 C 
HETATM   32  O   UNK N   1      20.623  14.076   0.569  0.00  0.00    -0.371 OA
HETATM   33  C   UNK N   1      18.386  14.631   0.233  0.00  0.00     0.045 C 
HETATM   34  C   UNK N   1      19.130  12.263   0.035  0.00  0.00     0.045 C 
HETATM   35  C   UNK N   1      21.676  13.467   1.292  0.00  0.00     0.055 C 
HETATM   36  C   UNK N   1      21.287  12.400   2.312  0.00  0.00     0.048 C 
HETATM   37  C   UNK N   1      22.624  12.730   0.342  0.00  0.00     0.045 C 
HETATM   38  C   UNK N   1      22.361  14.641   1.964  0.00  0.00     0.045 C 
ENDBRANCH  17  29
ENDBRANCH  11  14
ENDBRANCH   1  10
TORSDOF 4
ENDMDL
MODEL 3
REMARK VINA RESULT:      -7.6     12.805     16.347
REMARK  4 active torsions:
REMARK  status: ('A' for Active; 'I' for Inactive)
REMARK    1  A    between atoms: C_5  and  C_8 
REMARK    2  A    between atoms: C_9  and  N_25 
REMARK    3  A    between atoms: C_12  and  C_15 
REMARK       I    between atoms: N_25  and  C_26 
REMARK    4  A    between atoms: C_26  and  C_28 
ROOT
HETATM    1  C   UNK N   1      34.303  15.581   9.848  0.00  0.00     0.175 A 
HETATM    2  N   UNK N   1      34.262  15.189   8.565  0.00  0.00    -0.328 N 
HETATM    3  C   UNK N   1      33.013  14.723   8.404  0.00  0.00     0.131 A 
HETATM    4  C   UNK N   1      32.314  14.811   9.586  0.00  0.00     0.131 A 
HETATM    5  N   UNK N   1      33.133  15.357  10.497  0.00  0.00    -0.345 N 
ATOM      6  HN  UNK N   1      32.921  15.561  11.473  1.00  0.00     0.167 HD
HETATM    7  C   UNK N   1      32.475  14.266   7.156  0.00  0.00     0.119 C 
HETATM    8  N   UNK N   1      31.989  13.887   6.176  0.00  0.00    -0.190 NA
HETATM    9  H   UNK N   1      34.984  15.231   7.896  0.00  0.00     0.168 HD
ENDROOT
BRANCH   1  10
HETATM   10  C   UNK N   1      35.434  16.335  10.442  0.00  0.00     0.290 C 
HETATM   11  N   UNK N   1      36.425  15.673  11.101  0.00  0.00    -0.318 N 
HETATM   12  H   UNK N   1      37.272  16.138  11.291  0.00  0.00     0.169 HD
HETATM   13  O   UNK N   1      35.451  17.554  10.388  0.00  0.00    -0.264 OA
BRANCH  11  14
HETATM   14  C   UNK N   1      36.259  14.314  11.522  0.00  0.00     0.062 A 
HETATM   15  C   UNK N   1      36.828  13.182  10.861  0.00  0.00     0.065 A 
HETATM   16  N   UNK N   1      36.569  11.917  11.364  0.00  0.00    -0.357 N 
HETATM   17  C   UNK N   1      35.773  11.756  12.481  0.00  0.00     0.014 A 
ATOM     18  HN  UNK N   1      36.969  11.098  10.905  1.00  0.00     0.166 HD
HETATM   19  C   UNK N   1      35.313  12.861  13.161  0.00  0.00     0.027 A 
HETATM   20  C   UNK N   1      35.569  14.111  12.700  0.00  0.00     0.034 A 
BRANCH  15  21
HETATM   21  C   UNK N   1      37.874  13.410   9.831  0.00  0.00    -0.033 C 
HETATM   22  C   UNK N   1      37.392  13.470   8.416  0.00  0.00     0.041 C 
HETATM   23  C   UNK N   1      37.588  12.067   7.861  0.00  0.00     0.013 C 
HETATM   24  C   UNK N   1      39.096  11.753   7.784  0.00  0.00    -0.044 C 
HETATM   25  C   UNK N   1      39.246  10.273   7.472  0.00  0.00     0.015 C 
HETATM   26  C   UNK N   1      39.909  12.141   9.039  0.00  0.00     0.036 C 
HETATM   27  C   UNK N   1      39.722  12.558   6.676  0.00  0.00     0.015 C 
HETATM   28  C   UNK N   1      39.084  12.866  10.078  0.00  0.00    -0.017 C 
ENDBRANCH  15  21
BRANCH  17  29
HETATM   29  C   UNK N   1      35.242  10.457  13.025  0.00  0.00     0.041 C 
HETATM   30  C   UNK N   1      36.268   9.373  12.684  0.00  0.00     0.048 C 
HETATM   31  C   UNK N   1      36.687   8.495  13.861  0.00  0.00     0.055 C 
HETATM   32  O   UNK N   1      36.854   9.171  15.089  0.00  0.00    -0.371 OA
HETATM   33  C   UNK N   1      38.053   7.918  13.534  0.00  0.00     0.045 C 
HETATM   34  C   UNK N   1      35.670   7.376  14.006  0.00  0.00     0.045 C 
HETATM   35  C   UNK N   1      35.845  10.091  15.458  0.00  0.00     0.055 C 
HETATM   36  C   UNK N   1      34.732  10.341  14.442  0.00  0.00     0.048 C 
HETATM   37  C   UNK N   1      35.095   9.597  16.699  0.00  0.00     0.045 C 
HETATM   38  C   UNK N   1      36.619  11.362  15.742  0.00  0.00     0.045 C 
ENDBRANCH  17  29
ENDBRANCH  11  14
ENDBRANCH   1  10
TORSDOF 4
ENDMDL
MODEL 4
REMARK VINA RESULT:      -7.6      1.695      2.563
REMARK  4 active torsions:
REMARK  status: ('A' for Active; 'I' for Inactive)
REMARK    1  A    between atoms: C_5  and  C_8 
REMARK    2  A    between atoms: C_9  and  N_25 
REMARK    3  A    between atoms: C_12  and  C_15 
REMARK       I    between atoms: N_25  and  C_26 
REMARK    4  A    between atoms: C_26  and  C_28 
ROOT
HETATM    1  C   UNK N   1      21.108  18.274   4.630  0.00  0.00     0.175 A 
HETATM    2  N   UNK N   1      21.696  19.179   3.832  0.00  0.00    -0.328 N 
HETATM    3  C   UNK N   1      20.954  19.163   2.714  0.00  0.00     0.131 A 
HETATM    4  C   UNK N   1      19.940  18.238   2.826  0.00  0.00     0.131 A 
HETATM    5  N   UNK N   1      20.040  17.679   4.041  0.00  0.00    -0.345 N 
ATOM      6  HN  UNK N   1      19.439  16.959   4.439  1.00  0.00     0.167 HD
HETATM    7  C   UNK N   1      21.155  20.038   1.595  0.00  0.00     0.119 C 
HETATM    8  N   UNK N   1      21.271  20.719   0.667  0.00  0.00    -0.190 NA
HETATM    9  H   UNK N   1      22.491  19.728   4.023  0.00  0.00     0.168 HD
ENDROOT
BRANCH   1  10
HETATM   10  C   UNK N   1      21.472  18.073   6.053  0.00  0.00     0.290 C 
HETATM   11  N   UNK N   1      22.362  17.103   6.401  0.00  0.00    -0.318 N 
HETATM   12  H   UNK N   1      22.769  17.120   7.297  0.00  0.00     0.169 HD
HETATM   13  O   UNK N   1      20.933  18.741   6.922  0.00  0.00    -0.264 OA
BRANCH  11  14
HETATM   14  C   UNK N   1      22.718  16.060   5.486  0.00  0.00     0.062 A 
HETATM   15  C   UNK N   1      23.954  15.991   4.770  0.00  0.00     0.065 A 
HETATM   16  N   UNK N   1      24.161  14.935   3.899  0.00  0.00    -0.357 N 
HETATM   17  C   UNK N   1      23.190  13.968   3.724  0.00  0.00     0.014 A 
ATOM     18  HN  UNK N   1      25.038  14.870   3.381  1.00  0.00     0.166 HD
HETATM   19  C   UNK N   1      22.048  13.997   4.492  0.00  0.00     0.027 A 
HETATM   20  C   UNK N   1      21.830  15.011   5.367  0.00  0.00     0.034 A 
BRANCH  15  21
HETATM   21  C   UNK N   1      25.062  16.896   5.173  0.00  0.00    -0.033 C 
HETATM   22  C   UNK N   1      25.329  18.046   4.254  0.00  0.00     0.041 C 
HETATM   23  C   UNK N   1      26.454  17.581   3.341  0.00  0.00     0.013 C 
HETATM   24  C   UNK N   1      27.740  17.388   4.170  0.00  0.00    -0.044 C 
HETATM   25  C   UNK N   1      28.761  16.689   3.287  0.00  0.00     0.015 C 
HETATM   26  C   UNK N   1      27.551  16.635   5.504  0.00  0.00     0.036 C 
HETATM   27  C   UNK N   1      28.280  18.733   4.580  0.00  0.00     0.015 C 
HETATM   28  C   UNK N   1      26.104  16.319   5.806  0.00  0.00    -0.017 C 
ENDBRANCH  15  21
BRANCH  17  29
HETATM   29  C   UNK N   1      23.180  12.883   2.681  0.00  0.00     0.041 C 
HETATM   30  C   UNK N   1      24.518  12.959   1.941  0.00  0.00     0.048 C 
HETATM   31  C   UNK N   1      25.261  11.630   1.823  0.00  0.00     0.055 C 
HETATM   32  O   UNK N   1      25.210  10.806   2.968  0.00  0.00    -0.371 OA
HETATM   33  C   UNK N   1      26.733  11.948   1.627  0.00  0.00     0.045 C 
HETATM   34  C   UNK N   1      24.722  10.889   0.611  0.00  0.00     0.045 C 
HETATM   35  C   UNK N   1      23.948  10.645   3.587  0.00  0.00     0.055 C 
HETATM   36  C   UNK N   1      22.790  11.463   3.019  0.00  0.00     0.048 C 
HETATM   37  C   UNK N   1      23.465   9.197   3.453  0.00  0.00     0.045 C 
HETATM   38  C   UNK N   1      24.218  11.012   5.032  0.00  0.00     0.045 C 
ENDBRANCH  17  29
ENDBRANCH  11  14
ENDBRANCH   1  10
TORSDOF 4
ENDMDL
MODEL 5
REMARK VINA RESULT:      -7.5     12.823     15.569
REMARK  4 active torsions:
REMARK  status: ('A' for Active; 'I' for Inactive)
REMARK    1  A    between atoms: C_5  and  C_8 
REMARK    2  A    between atoms: C_9  and  N_25 
REMARK    3  A    between atoms: C_12  and  C_15 
REMARK       I    between atoms: N_25  and  C_26 
REMARK    4  A    between atoms: C_26  and  C_28 
ROOT
HETATM    1  C   UNK N   1      26.639  25.205  -9.946  0.00  0.00     0.175 A 
HETATM    2  N   UNK N   1      27.038  26.453  -9.652  0.00  0.00    -0.328 N 
HETATM    3  C   UNK N   1      28.181  26.603 -10.339  0.00  0.00     0.131 A 
HETATM    4  C   UNK N   1      28.482  25.447 -11.024  0.00  0.00     0.131 A 
HETATM    5  N   UNK N   1      27.502  24.566 -10.774  0.00  0.00    -0.345 N 
ATOM      6  HN  UNK N   1      27.422  23.615 -11.132  1.00  0.00     0.167 HD
HETATM    7  C   UNK N   1      28.936  27.820 -10.400  0.00  0.00     0.119 C 
HETATM    8  N   UNK N   1      29.583  28.776 -10.485  0.00  0.00    -0.190 NA
HETATM    9  H   UNK N   1      26.595  27.107  -9.064  0.00  0.00     0.168 HD
ENDROOT
BRANCH   1  10
HETATM   10  C   UNK N   1      25.319  24.651  -9.557  0.00  0.00     0.290 C 
HETATM   11  N   UNK N   1      25.194  23.927  -8.411  0.00  0.00    -0.318 N 
HETATM   12  H   UNK N   1      24.297  23.758  -8.042  0.00  0.00     0.169 HD
HETATM   13  O   UNK N   1      24.354  24.797 -10.290  0.00  0.00    -0.264 OA
BRANCH  11  14
HETATM   14  C   UNK N   1      26.343  23.407  -7.731  0.00  0.00     0.062 A 
HETATM   15  C   UNK N   1      26.906  23.965  -6.541  0.00  0.00     0.065 A 
HETATM   16  N   UNK N   1      28.035  23.374  -5.998  0.00  0.00    -0.357 N 
HETATM   17  C   UNK N   1      28.604  22.267  -6.597  0.00  0.00     0.014 A 
ATOM     18  HN  UNK N   1      28.449  23.758  -5.148  1.00  0.00     0.166 HD
HETATM   19  C   UNK N   1      27.994  21.685  -7.685  0.00  0.00     0.027 A 
HETATM   20  C   UNK N   1      26.877  22.234  -8.225  0.00  0.00     0.034 A 
BRANCH  15  21
HETATM   21  C   UNK N   1      26.126  24.984  -5.793  0.00  0.00    -0.033 C 
HETATM   22  C   UNK N   1      26.037  26.334  -6.431  0.00  0.00     0.041 C 
HETATM   23  C   UNK N   1      27.143  27.159  -5.789  0.00  0.00     0.013 C 
HETATM   24  C   UNK N   1      26.822  27.371  -4.296  0.00  0.00    -0.044 C 
HETATM   25  C   UNK N   1      28.054  27.970  -3.637  0.00  0.00     0.015 C 
HETATM   26  C   UNK N   1      26.349  26.108  -3.543  0.00  0.00     0.036 C 
HETATM   27  C   UNK N   1      25.671  28.333  -4.160  0.00  0.00     0.015 C 
HETATM   28  C   UNK N   1      26.181  24.908  -4.447  0.00  0.00    -0.017 C 
ENDBRANCH  15  21
BRANCH  17  29
HETATM   29  C   UNK N   1      29.927  21.638  -6.249  0.00  0.00     0.041 C 
HETATM   30  C   UNK N   1      31.014  22.468  -6.936  0.00  0.00     0.048 C 
HETATM   31  C   UNK N   1      32.160  22.904  -6.024  0.00  0.00     0.055 C 
HETATM   32  O   UNK N   1      31.779  23.299  -4.724  0.00  0.00    -0.371 OA
HETATM   33  C   UNK N   1      32.792  24.136  -6.646  0.00  0.00     0.045 C 
HETATM   34  C   UNK N   1      33.173  21.774  -5.960  0.00  0.00     0.045 C 
HETATM   35  C   UNK N   1      30.858  22.467  -4.044  0.00  0.00     0.055 C 
HETATM   36  C   UNK N   1      30.287  21.286  -4.825  0.00  0.00     0.048 C 
HETATM   37  C   UNK N   1      31.523  21.809  -2.831  0.00  0.00     0.045 C 
HETATM   38  C   UNK N   1      29.762  23.428  -3.628  0.00  0.00     0.045 C 
ENDBRANCH  17  29
ENDBRANCH  11  14
ENDBRANCH   1  10
TORSDOF 4
ENDMDL
MODEL 6
REMARK VINA RESULT:      -7.4     13.236     15.865
REMARK  4 active torsions:
REMARK  status: ('A' for Active; 'I' for Inactive)
REMARK    1  A    between atoms: C_5  and  C_8 
REMARK    2  A    between atoms: C_9  and  N_25 
REMARK    3  A    between atoms: C_12  and  C_15 
REMARK       I    between atoms: N_25  and  C_26 
REMARK    4  A    between atoms: C_26  and  C_28 
ROOT
HETATM    1  C   UNK N   1      27.429  25.937  -9.111  0.00  0.00     0.175 A 
HETATM    2  N   UNK N   1      27.894  27.196  -9.103  0.00  0.00    -0.328 N 
HETATM    3  C   UNK N   1      29.103  27.104  -9.679  0.00  0.00     0.131 A 
HETATM    4  C   UNK N   1      29.376  25.796 -10.011  0.00  0.00     0.131 A 
HETATM    5  N   UNK N   1      28.312  25.061  -9.651  0.00  0.00    -0.345 N 
ATOM      6  HN  UNK N   1      28.193  24.055  -9.761  1.00  0.00     0.167 HD
HETATM    7  C   UNK N   1      29.950  28.224  -9.967  0.00  0.00     0.119 C 
HETATM    8  N   UNK N   1      30.673  29.091 -10.223  0.00  0.00    -0.190 NA
HETATM    9  H   UNK N   1      27.450  28.003  -8.753  0.00  0.00     0.168 HD
ENDROOT
BRANCH   1  10
HETATM   10  C   UNK N   1      26.042  25.570  -8.736  0.00  0.00     0.290 C 
HETATM   11  N   UNK N   1      25.748  25.231  -7.451  0.00  0.00    -0.318 N 
HETATM   12  H   UNK N   1      24.807  25.212  -7.160  0.00  0.00     0.169 HD
HETATM   13  O   UNK N   1      25.171  25.520  -9.591  0.00  0.00    -0.264 OA
BRANCH  11  14
HETATM   14  C   UNK N   1      26.781  24.903  -6.515  0.00  0.00     0.062 A 
HETATM   15  C   UNK N   1      27.351  25.819  -5.577  0.00  0.00     0.065 A 
HETATM   16  N   UNK N   1      28.361  25.375  -4.740  0.00  0.00    -0.357 N 
HETATM   17  C   UNK N   1      28.810  24.071  -4.814  0.00  0.00     0.014 A 
ATOM     18  HN  UNK N   1      28.778  26.015  -4.064  1.00  0.00     0.166 HD
HETATM   19  C   UNK N   1      28.185  23.176  -5.655  0.00  0.00     0.027 A 
HETATM   20  C   UNK N   1      27.180  23.583  -6.470  0.00  0.00     0.034 A 
BRANCH  15  21
HETATM   21  C   UNK N   1      26.674  27.123  -5.353  0.00  0.00    -0.033 C 
HETATM   22  C   UNK N   1      27.415  28.331  -5.830  0.00  0.00     0.041 C 
HETATM   23  C   UNK N   1      28.157  28.859  -4.610  0.00  0.00     0.013 C 
HETATM   24  C   UNK N   1      27.138  29.366  -3.571  0.00  0.00    -0.044 C 
HETATM   25  C   UNK N   1      27.891  29.645  -2.280  0.00  0.00     0.015 C 
HETATM   26  C   UNK N   1      25.936  28.428  -3.321  0.00  0.00     0.036 C 
HETATM   27  C   UNK N   1      26.510  30.644  -4.063  0.00  0.00     0.015 C 
HETATM   28  C   UNK N   1      25.926  27.224  -4.234  0.00  0.00    -0.017 C 
ENDBRANCH  15  21
BRANCH  17  29
HETATM   29  C   UNK N   1      30.018  23.496  -4.124  0.00  0.00     0.041 C 
HETATM   30  C   UNK N   1      30.061  22.003  -4.461  0.00  0.00     0.048 C 
HETATM   31  C   UNK N   1      31.408  21.502  -4.978  0.00  0.00     0.055 C 
HETATM   32  O   UNK N   1      32.079  22.377  -5.859  0.00  0.00    -0.371 OA
HETATM   33  C   UNK N   1      31.144  20.245  -5.788  0.00  0.00     0.045 C 
HETATM   34  C   UNK N   1      32.286  21.176  -3.782  0.00  0.00     0.045 C 
HETATM   35  C   UNK N   1      32.138  23.741  -5.489  0.00  0.00     0.055 C 
HETATM   36  C   UNK N   1      31.376  24.148  -4.230  0.00  0.00     0.048 C 
HETATM   37  C   UNK N   1      33.581  24.154  -5.186  0.00  0.00     0.045 C 
HETATM   38  C   UNK N   1      31.596  24.457  -6.710  0.00  0.00     0.045 C 
ENDBRANCH  17  29
ENDBRANCH  11  14
ENDBRANCH   1  10
TORSDOF 4
ENDMDL
MODEL 7
REMARK VINA RESULT:      -7.4     12.291     15.003
REMARK  4 active torsions:
REMARK  status: ('A' for Active; 'I' for Inactive)
REMARK    1  A    between atoms: C_5  and  C_8 
REMARK    2  A    between atoms: C_9  and  N_25 
REMARK    3  A    between atoms: C_12  and  C_15 
REMARK       I    between atoms: N_25  and  C_26 
REMARK    4  A    between atoms: C_26  and  C_28 
ROOT
HETATM    1  C   UNK N   1      28.294  29.060  -4.127  0.00  0.00     0.175 A 
HETATM    2  N   UNK N   1      27.979  29.449  -5.372  0.00  0.00    -0.328 N 
HETATM    3  C   UNK N   1      29.142  29.387  -6.040  0.00  0.00     0.131 A 
HETATM    4  C   UNK N   1      30.155  28.987  -5.198  0.00  0.00     0.131 A 
HETATM    5  N   UNK N   1      29.613  28.778  -3.989  0.00  0.00    -0.345 N 
ATOM      6  HN  UNK N   1      30.094  28.472  -3.143  1.00  0.00     0.167 HD
HETATM    7  C   UNK N   1      29.284  29.637  -7.444  0.00  0.00     0.119 C 
HETATM    8  N   UNK N   1      29.455  29.827  -8.573  0.00  0.00    -0.190 NA
HETATM    9  H   UNK N   1      27.097  29.720  -5.716  0.00  0.00     0.168 HD
ENDROOT
BRANCH   1  10
HETATM   10  C   UNK N   1      27.289  28.795  -3.069  0.00  0.00     0.290 C 
HETATM   11  N   UNK N   1      26.498  27.689  -3.139  0.00  0.00    -0.318 N 
HETATM   12  H   UNK N   1      26.002  27.398  -2.340  0.00  0.00     0.169 HD
HETATM   13  O   UNK N   1      27.131  29.596  -2.161  0.00  0.00    -0.264 OA
BRANCH  11  14
HETATM   14  C   UNK N   1      26.375  26.940  -4.354  0.00  0.00     0.062 A 
HETATM   15  C   UNK N   1      27.220  25.850  -4.728  0.00  0.00     0.065 A 
HETATM   16  N   UNK N   1      27.003  25.225  -5.945  0.00  0.00    -0.357 N 
HETATM   17  C   UNK N   1      25.989  25.651  -6.781  0.00  0.00     0.014 A 
ATOM     18  HN  UNK N   1      27.596  24.443  -6.227  1.00  0.00     0.166 HD
HETATM   19  C   UNK N   1      25.124  26.637  -6.364  0.00  0.00     0.027 A 
HETATM   20  C   UNK N   1      25.304  27.252  -5.168  0.00  0.00     0.034 A 
BRANCH  15  21
HETATM   21  C   UNK N   1      28.121  25.263  -3.702  0.00  0.00    -0.033 C 
HETATM   22  C   UNK N   1      29.586  25.400  -3.968  0.00  0.00     0.041 C 
HETATM   23  C   UNK N   1      30.001  24.095  -4.633  0.00  0.00     0.013 C 
HETATM   24  C   UNK N   1      29.857  22.938  -3.625  0.00  0.00    -0.044 C 
HETATM   25  C   UNK N   1      30.033  21.635  -4.386  0.00  0.00     0.015 C 
HETATM   26  C   UNK N   1      28.542  22.937  -2.815  0.00  0.00     0.036 C 
HETATM   27  C   UNK N   1      30.934  23.048  -2.577  0.00  0.00     0.015 C 
HETATM   28  C   UNK N   1      27.678  24.146  -3.087  0.00  0.00    -0.017 C 
ENDBRANCH  15  21
BRANCH  17  29
HETATM   29  C   UNK N   1      25.754  25.213  -8.202  0.00  0.00     0.041 C 
HETATM   30  C   UNK N   1      26.983  25.635  -9.012  0.00  0.00     0.048 C 
HETATM   31  C   UNK N   1      27.595  24.529  -9.870  0.00  0.00     0.055 C 
HETATM   32  O   UNK N   1      27.630  23.251  -9.271  0.00  0.00    -0.371 OA
HETATM   33  C   UNK N   1      29.048  24.896 -10.114  0.00  0.00     0.045 C 
HETATM   34  C   UNK N   1      26.842  24.478 -11.188  0.00  0.00     0.045 C 
HETATM   35  C   UNK N   1      26.453  22.815  -8.620  0.00  0.00     0.055 C 
HETATM   36  C   UNK N   1      25.299  23.812  -8.535  0.00  0.00     0.048 C 
HETATM   37  C   UNK N   1      25.842  21.620  -9.358  0.00  0.00     0.045 C 
HETATM   38  C   UNK N   1      26.942  22.427  -7.239  0.00  0.00     0.045 C 
ENDBRANCH  17  29
ENDBRANCH  11  14
ENDBRANCH   1  10
TORSDOF 4
ENDMDL
MODEL 8
REMARK VINA RESULT:      -7.3      1.778      3.834
REMARK  4 active torsions:
REMARK  status: ('A' for Active; 'I' for Inactive)
REMARK    1  A    between atoms: C_5  and  C_8 
REMARK    2  A    between atoms: C_9  and  N_25 
REMARK    3  A    between atoms: C_12  and  C_15 
REMARK       I    between atoms: N_25  and  C_26 
REMARK    4  A    between atoms: C_26  and  C_28 
ROOT
HETATM    1  C   UNK N   1      20.923  16.555   6.818  0.00  0.00     0.175 A 
HETATM    2  N   UNK N   1      21.949  15.821   7.278  0.00  0.00    -0.328 N 
HETATM    3  C   UNK N   1      21.445  14.581   7.382  0.00  0.00     0.131 A 
HETATM    4  C   UNK N   1      20.120  14.570   7.011  0.00  0.00     0.131 A 
HETATM    5  N   UNK N   1      19.794  15.821   6.653  0.00  0.00    -0.345 N 
ATOM      6  HN  UNK N   1      18.887  16.152   6.325  1.00  0.00     0.167 HD
HETATM    7  C   UNK N   1      22.208  13.427   7.761  0.00  0.00     0.119 C 
HETATM    8  N   UNK N   1      22.774  12.463   8.059  0.00  0.00    -0.190 NA
HETATM    9  H   UNK N   1      22.861  16.124   7.492  0.00  0.00     0.168 HD
ENDROOT
BRANCH   1  10
HETATM   10  C   UNK N   1      21.054  17.963   6.373  0.00  0.00     0.290 C 
HETATM   11  N   UNK N   1      21.207  18.250   5.050  0.00  0.00    -0.318 N 
HETATM   12  H   UNK N   1      21.067  19.172   4.737  0.00  0.00     0.169 HD
HETATM   13  O   UNK N   1      21.078  18.865   7.195  0.00  0.00    -0.264 OA
BRANCH  11  14
HETATM   14  C   UNK N   1      21.569  17.234   4.107  0.00  0.00     0.062 A 
HETATM   15  C   UNK N   1      22.907  16.811   3.838  0.00  0.00     0.065 A 
HETATM   16  N   UNK N   1      23.118  15.831   2.883  0.00  0.00    -0.357 N 
HETATM   17  C   UNK N   1      22.052  15.274   2.203  0.00  0.00     0.014 A 
ATOM     18  HN  UNK N   1      24.067  15.515   2.680  1.00  0.00     0.166 HD
HETATM   19  C   UNK N   1      20.764  15.623   2.541  0.00  0.00     0.027 A 
HETATM   20  C   UNK N   1      20.531  16.567   3.487  0.00  0.00     0.034 A 
BRANCH  15  21
HETATM   21  C   UNK N   1      23.989  17.242   4.761  0.00  0.00    -0.033 C 
HETATM   22  C   UNK N   1      24.604  18.573   4.466  0.00  0.00     0.041 C 
HETATM   23  C   UNK N   1      25.849  18.271   3.644  0.00  0.00     0.013 C 
HETATM   24  C   UNK N   1      26.869  17.514   4.519  0.00  0.00    -0.044 C 
HETATM   25  C   UNK N   1      27.977  17.011   3.609  0.00  0.00     0.015 C 
HETATM   26  C   UNK N   1      26.279  16.365   5.364  0.00  0.00     0.036 C 
HETATM   27  C   UNK N   1      27.455  18.457   5.538  0.00  0.00     0.015 C 
HETATM   28  C   UNK N   1      24.774  16.264   5.259  0.00  0.00    -0.017 C 
ENDBRANCH  15  21
BRANCH  17  29
HETATM   29  C   UNK N   1      22.128  14.356   1.012  0.00  0.00     0.041 C 
HETATM   30  C   UNK N   1      23.580  13.887   0.898  0.00  0.00     0.048 C 
HETATM   31  C   UNK N   1      23.757  12.375   0.766  0.00  0.00     0.055 C 
HETATM   32  O   UNK N   1      22.893  11.595   1.565  0.00  0.00    -0.371 OA
HETATM   33  C   UNK N   1      25.157  12.038   1.245  0.00  0.00     0.045 C 
HETATM   34  C   UNK N   1      23.604  12.004  -0.699  0.00  0.00     0.045 C 
HETATM   35  C   UNK N   1      21.527  11.961   1.580  0.00  0.00     0.055 C 
HETATM   36  C   UNK N   1      21.142  13.228   0.818  0.00  0.00     0.048 C 
HETATM   37  C   UNK N   1      20.671  10.873   0.925  0.00  0.00     0.045 C 
HETATM   38  C   UNK N   1      21.220  12.099   3.058  0.00  0.00     0.045 C 
ENDBRANCH  17  29
ENDBRANCH  11  14
ENDBRANCH   1  10
TORSDOF 4
ENDMDL
MODEL 9
REMARK VINA RESULT:      -7.3      2.753      6.655
REMARK  4 active torsions:
REMARK  status: ('A' for Active; 'I' for Inactive)
REMARK    1  A    between atoms: C_5  and  C_8 
REMARK    2  A    between atoms: C_9  and  N_25 
REMARK    3  A    between atoms: C_12  and  C_15 
REMARK       I    between atoms: N_25  and  C_26 
REMARK    4  A    between atoms: C_26  and  C_28 
ROOT
HETATM    1  C   UNK N   1      20.530  17.074   3.182  0.00  0.00     0.175 A 
HETATM    2  N   UNK N   1      20.598  17.654   1.973  0.00  0.00    -0.328 N 
HETATM    3  C   UNK N   1      20.726  18.963   2.242  0.00  0.00     0.131 A 
HETATM    4  C   UNK N   1      20.712  19.174   3.602  0.00  0.00     0.131 A 
HETATM    5  N   UNK N   1      20.590  17.976   4.193  0.00  0.00    -0.345 N 
ATOM      6  HN  UNK N   1      20.551  17.783   5.193  1.00  0.00     0.167 HD
HETATM    7  C   UNK N   1      20.919  19.979   1.249  0.00  0.00     0.119 C 
HETATM    8  N   UNK N   1      21.078  20.839   0.491  0.00  0.00    -0.190 NA
HETATM    9  H   UNK N   1      20.559  17.219   1.090  0.00  0.00     0.168 HD
ENDROOT
BRANCH   1  10
HETATM   10  C   UNK N   1      20.566  15.607   3.393  0.00  0.00     0.290 C 
HETATM   11  N   UNK N   1      21.617  15.036   4.042  0.00  0.00    -0.318 N 
HETATM   12  H   UNK N   1      21.535  14.114   4.378  0.00  0.00     0.169 HD
HETATM   13  O   UNK N   1      19.678  14.902   2.939  0.00  0.00    -0.264 OA
BRANCH  11  14
HETATM   14  C   UNK N   1      22.841  15.751   4.247  0.00  0.00     0.062 A 
HETATM   15  C   UNK N   1      23.373  16.108   5.525  0.00  0.00     0.065 A 
HETATM   16  N   UNK N   1      24.559  16.821   5.579  0.00  0.00    -0.357 N 
HETATM   17  C   UNK N   1      25.214  17.181   4.417  0.00  0.00     0.014 A 
ATOM     18  HN  UNK N   1      24.953  17.082   6.483  1.00  0.00     0.166 HD
HETATM   19  C   UNK N   1      24.740  16.747   3.199  0.00  0.00     0.027 A 
HETATM   20  C   UNK N   1      23.591  16.031   3.122  0.00  0.00     0.034 A 
BRANCH  15  21
HETATM   21  C   UNK N   1      22.783  15.488   6.740  0.00  0.00    -0.033 C 
HETATM   22  C   UNK N   1      23.564  14.363   7.341  0.00  0.00     0.041 C 
HETATM   23  C   UNK N   1      22.949  13.093   6.771  0.00  0.00     0.013 C 
HETATM   24  C   UNK N   1      21.508  12.940   7.297  0.00  0.00    -0.044 C 
HETATM   25  C   UNK N   1      20.846  11.815   6.519  0.00  0.00     0.015 C 
HETATM   26  C   UNK N   1      20.655  14.227   7.249  0.00  0.00     0.036 C 
HETATM   27  C   UNK N   1      21.543  12.577   8.759  0.00  0.00     0.015 C 
HETATM   28  C   UNK N   1      21.435  15.437   6.790  0.00  0.00    -0.017 C 
ENDBRANCH  15  21
BRANCH  17  29
HETATM   29  C   UNK N   1      26.390  18.114   4.301  0.00  0.00     0.041 C 
HETATM   30  C   UNK N   1      26.021  19.397   5.050  0.00  0.00     0.048 C 
HETATM   31  C   UNK N   1      27.067  19.875   6.055  0.00  0.00     0.055 C 
HETATM   32  O   UNK N   1      27.694  18.855   6.803  0.00  0.00    -0.371 OA
HETATM   33  C   UNK N   1      26.351  20.737   7.080  0.00  0.00     0.045 C 
HETATM   34  C   UNK N   1      28.101  20.700   5.310  0.00  0.00     0.045 C 
HETATM   35  C   UNK N   1      28.138  17.717   6.090  0.00  0.00     0.055 C 
HETATM   36  C   UNK N   1      27.797  17.656   4.603  0.00  0.00     0.048 C 
HETATM   37  C   UNK N   1      29.667  17.631   6.113  0.00  0.00     0.045 C 
HETATM   38  C   UNK N   1      27.503  16.565   6.843  0.00  0.00     0.045 C 
ENDBRANCH  17  29
ENDBRANCH  11  14
ENDBRANCH   1  10
TORSDOF 4
ENDMDL
