MODEL 1
REMARK VINA RESULT:      -7.6      0.000      0.000
REMARK  4 active torsions:
REMARK  status: ('A' for Active; 'I' for Inactive)
REMARK    1  A    between atoms: C_9  and  N_10 
REMARK    2  A    between atoms: N_10  and  C_11 
REMARK    3  A    between atoms: C_12  and  N_26 
REMARK    4  A    between atoms: C_16  and  C_19 
ROOT
HETATM    1  C   UNK N   1      35.272  13.082  12.484  0.00  0.00     0.150 A 
HETATM    2  C   UNK N   1      36.688  13.140  12.269  0.00  0.00     0.143 A 
HETATM    3  N   UNK N   1      37.178  13.947  11.296  0.00  0.00    -0.347 N 
ATOM      4  HN  UNK N   1      38.187  13.986  11.149  1.00  0.00     0.167 HD
HETATM    5  C   UNK N   1      36.374  14.702  10.517  0.00  0.00     0.120 A 
HETATM    6  C   UNK N   1      34.997  14.660  10.707  0.00  0.00     0.059 A 
HETATM    7  N   UNK N   1      34.489  13.856  11.678  0.00  0.00    -0.338 N 
ATOM      8  HN  UNK N   1      33.477  13.831  11.811  1.00  0.00     0.167 HD
ENDROOT
BRANCH   1   9
HETATM    9  N   UNK N   1      34.583  12.286  13.465  0.00  0.00    -0.339 N 
HETATM   10  H   UNK N   1      33.805  11.817  13.085  0.00  0.00     0.167 HD
BRANCH   9  11
HETATM   11  C   UNK N   1      34.755  12.010  14.856  0.00  0.00     0.034 A 
HETATM   12  C   UNK N   1      34.867  13.020  15.818  0.00  0.00     0.043 A 
HETATM   13  C   UNK N   1      35.035  12.676  17.145  0.00  0.00    -0.006 A 
HETATM   14  C   UNK N   1      35.093  11.381  17.547  0.00  0.00     0.042 A 
HETATM   15  C   UNK N   1      35.169  13.473  18.252  0.00  0.00     0.030 A 
HETATM   16  C   UNK N   1      34.985  10.329  16.640  0.00  0.00     0.033 A 
HETATM   17  N   UNK N   1      35.261  11.303  18.875  0.00  0.00    -0.365 N 
HETATM   18  C   UNK N   1      34.814  10.656  15.278  0.00  0.00     0.032 A 
HETATM   19  C   UNK N   1      35.309  12.585  19.318  0.00  0.00     0.089 A 
HETATM   20  H   UNK N   1      35.333  10.484  19.416  0.00  0.00     0.165 HD
ENDBRANCH   9  11
ENDBRANCH   1   9
BRANCH   2  21
HETATM   21  N   UNK N   1      37.617  12.401  13.013  0.00  0.00    -0.382 N 
HETATM   22  H   UNK N   1      37.305  11.739  13.671  0.00  0.00     0.157 HD
HETATM   23  H   UNK N   1      38.582  12.544  12.877  0.00  0.00     0.157 HD
ENDBRANCH   2  21
BRANCH   6  24
HETATM   24  C   UNK N   1      34.103  15.478   9.864  0.00  0.00    -0.005 A 
HETATM   25  C   UNK N   1      32.849  14.989   9.470  0.00  0.00     0.030 A 
HETATM   26  C   UNK N   1      32.020  15.777   8.673  0.00  0.00     0.088 A 
HETATM   27  N   UNK N   1      32.428  17.013   8.280  0.00  0.00    -0.375 N 
HETATM   28  C   UNK N   1      33.640  17.512   8.647  0.00  0.00     0.088 A 
ATOM     29  HN  UNK N   1      31.812  17.579   7.697  1.00  0.00     0.164 HD
HETATM   30  C   UNK N   1      34.498  16.754   9.446  0.00  0.00     0.030 A 
ENDBRANCH   6  24
TORSDOF 4
ENDMDL
MODEL 2
REMARK VINA RESULT:      -7.4      1.280      7.991
REMARK  4 active torsions:
REMARK  status: ('A' for Active; 'I' for Inactive)
REMARK    1  A    between atoms: C_9  and  N_10 
REMARK    2  A    between atoms: N_10  and  C_11 
REMARK    3  A    between atoms: C_12  and  N_26 
REMARK    4  A    between atoms: C_16  and  C_19 
ROOT
HETATM    1  C   UNK N   1      36.420  14.128  12.763  0.00  0.00     0.150 A 
HETATM    2  C   UNK N   1      37.250  13.148  12.125  0.00  0.00     0.143 A 
HETATM    3  N   UNK N   1      37.615  12.039  12.815  0.00  0.00    -0.347 N 
ATOM      4  HN  UNK N   1      38.205  11.345  12.356  1.00  0.00     0.167 HD
HETATM    5  C   UNK N   1      37.222  11.825  14.089  0.00  0.00     0.120 A 
HETATM    6  C   UNK N   1      36.418  12.763  14.727  0.00  0.00     0.059 A 
HETATM    7  N   UNK N   1      36.043  13.880  14.050  0.00  0.00    -0.338 N 
ATOM      8  HN  UNK N   1      35.452  14.564  14.525  1.00  0.00     0.167 HD
ENDROOT
BRANCH   1   9
HETATM    9  N   UNK N   1      35.940  15.355  12.184  0.00  0.00    -0.339 N 
HETATM   10  H   UNK N   1      36.246  16.147  12.683  0.00  0.00     0.167 HD
BRANCH   9  11
HETATM   11  C   UNK N   1      35.128  15.703  11.062  0.00  0.00     0.034 A 
HETATM   12  C   UNK N   1      35.347  16.855  10.298  0.00  0.00     0.043 A 
HETATM   13  C   UNK N   1      34.517  17.127   9.228  0.00  0.00    -0.006 A 
HETATM   14  C   UNK N   1      33.491  16.306   8.892  0.00  0.00     0.042 A 
HETATM   15  C   UNK N   1      34.531  18.178   8.348  0.00  0.00     0.030 A 
HETATM   16  C   UNK N   1      33.221  15.143   9.608  0.00  0.00     0.033 A 
HETATM   17  N   UNK N   1      32.833  16.781   7.825  0.00  0.00    -0.365 N 
HETATM   18  C   UNK N   1      34.055  14.844  10.707  0.00  0.00     0.032 A 
HETATM   19  C   UNK N   1      33.465  17.933   7.482  0.00  0.00     0.089 A 
HETATM   20  H   UNK N   1      32.053  16.377   7.380  0.00  0.00     0.165 HD
ENDBRANCH   9  11
ENDBRANCH   1   9
BRANCH   2  21
HETATM   21  N   UNK N   1      37.719  13.265  10.811  0.00  0.00    -0.382 N 
HETATM   22  H   UNK N   1      37.115  13.576  10.098  0.00  0.00     0.157 HD
HETATM   23  H   UNK N   1      38.653  13.036  10.599  0.00  0.00     0.157 HD
ENDBRANCH   2  21
BRANCH   6  24
HETATM   24  C   UNK N   1      35.980  12.545  16.119  0.00  0.00    -0.005 A 
HETATM   25  C   UNK N   1      35.984  11.257  16.675  0.00  0.00     0.030 A 
HETATM   26  C   UNK N   1      35.565  11.072  17.992  0.00  0.00     0.088 A 
HETATM   27  N   UNK N   1      35.155  12.136  18.732  0.00  0.00    -0.375 N 
HETATM   28  C   UNK N   1      35.140  13.396  18.218  0.00  0.00     0.088 A 
ATOM     29  HN  UNK N   1      34.851  11.987  19.694  1.00  0.00     0.164 HD
HETATM   30  C   UNK N   1      35.553  13.622  16.903  0.00  0.00     0.030 A 
ENDBRANCH   6  24
TORSDOF 4
ENDMDL
MODEL 3
REMARK VINA RESULT:      -7.3      8.223     13.141
REMARK  4 active torsions:
REMARK  status: ('A' for Active; 'I' for Inactive)
REMARK    1  A    between atoms: C_9  and  N_10 
REMARK    2  A    between atoms: N_10  and  C_11 
REMARK    3  A    between atoms: C_12  and  N_26 
REMARK    4  A    between atoms: C_16  and  C_19 
ROOT
HETATM    1  C   UNK N   1      26.338  18.866   4.951  0.00  0.00     0.150 A 
HETATM    2  C   UNK N   1      27.137  19.709   4.111  0.00  0.00     0.143 A 
HETATM    3  N   UNK N   1      26.536  20.435   3.136  0.00  0.00    -0.347 N 
ATOM      4  HN  UNK N   1      27.109  21.033   2.542  1.00  0.00     0.167 HD
HETATM    5  C   UNK N   1      25.202  20.390   2.927  0.00  0.00     0.120 A 
HETATM    6  C   UNK N   1      24.408  19.578   3.730  0.00  0.00     0.059 A 
HETATM    7  N   UNK N   1      24.996  18.844   4.712  0.00  0.00    -0.338 N 
ATOM      8  HN  UNK N   1      24.405  18.251   5.297  1.00  0.00     0.167 HD
ENDROOT
BRANCH   1   9
HETATM    9  N   UNK N   1      26.806  18.034   6.027  0.00  0.00    -0.339 N 
HETATM   10  H   UNK N   1      26.145  17.353   6.287  0.00  0.00     0.167 HD
BRANCH   9  11
HETATM   11  C   UNK N   1      27.999  17.955   6.809  0.00  0.00     0.034 A 
HETATM   12  C   UNK N   1      29.067  17.114   6.477  0.00  0.00     0.043 A 
HETATM   13  C   UNK N   1      30.187  17.089   7.285  0.00  0.00    -0.006 A 
HETATM   14  C   UNK N   1      30.285  17.861   8.396  0.00  0.00     0.042 A 
HETATM   15  C   UNK N   1      31.340  16.357   7.169  0.00  0.00     0.030 A 
HETATM   16  C   UNK N   1      29.260  18.722   8.780  0.00  0.00     0.033 A 
HETATM   17  N   UNK N   1      31.459  17.661   9.011  0.00  0.00    -0.365 N 
HETATM   18  C   UNK N   1      28.104  18.763   7.971  0.00  0.00     0.032 A 
HETATM   19  C   UNK N   1      32.116  16.737   8.264  0.00  0.00     0.089 A 
HETATM   20  H   UNK N   1      31.780  18.096   9.834  0.00  0.00     0.165 HD
ENDBRANCH   9  11
ENDBRANCH   1   9
BRANCH   2  21
HETATM   21  N   UNK N   1      28.527  19.833   4.232  0.00  0.00    -0.382 N 
HETATM   22  H   UNK N   1      28.934  20.722   4.350  0.00  0.00     0.157 HD
HETATM   23  H   UNK N   1      29.098  19.032   4.200  0.00  0.00     0.157 HD
ENDBRANCH   2  21
BRANCH   6  24
HETATM   24  C   UNK N   1      22.950  19.517   3.516  0.00  0.00    -0.005 A 
HETATM   25  C   UNK N   1      22.302  20.484   2.733  0.00  0.00     0.030 A 
HETATM   26  C   UNK N   1      20.923  20.409   2.543  0.00  0.00     0.088 A 
HETATM   27  N   UNK N   1      20.210  19.403   3.116  0.00  0.00    -0.375 N 
HETATM   28  C   UNK N   1      20.813  18.452   3.882  0.00  0.00     0.088 A 
ATOM     29  HN  UNK N   1      19.202  19.360   2.970  1.00  0.00     0.164 HD
HETATM   30  C   UNK N   1      22.192  18.492   4.094  0.00  0.00     0.030 A 
ENDBRANCH   6  24
TORSDOF 4
ENDMDL
MODEL 4
REMARK VINA RESULT:      -7.2      2.864      5.047
REMARK  4 active torsions:
REMARK  status: ('A' for Active; 'I' for Inactive)
REMARK    1  A    between atoms: C_9  and  N_10 
REMARK    2  A    between atoms: N_10  and  C_11 
REMARK    3  A    between atoms: C_12  and  N_26 
REMARK    4  A    between atoms: C_16  and  C_19 
ROOT
HETATM    1  C   UNK N   1      34.482  15.611   8.961  0.00  0.00     0.150 A 
HETATM    2  C   UNK N   1      34.715  16.923   9.492  0.00  0.00     0.143 A 
HETATM    3  N   UNK N   1      34.596  17.999   8.677  0.00  0.00    -0.347 N 
ATOM      4  HN  UNK N   1      34.761  18.929   9.060  1.00  0.00     0.167 HD
HETATM    5  C   UNK N   1      34.265  17.878   7.372  0.00  0.00     0.120 A 
HETATM    6  C   UNK N   1      34.036  16.615   6.837  0.00  0.00     0.059 A 
HETATM    7  N   UNK N   1      34.151  15.526   7.641  0.00  0.00    -0.338 N 
ATOM      8  HN  UNK N   1      33.982  14.603   7.239  1.00  0.00     0.167 HD
ENDROOT
BRANCH   1   9
HETATM    9  N   UNK N   1      34.564  14.367   9.679  0.00  0.00    -0.339 N 
HETATM   10  H   UNK N   1      33.899  13.711   9.365  0.00  0.00     0.167 HD
BRANCH   9  11
HETATM   11  C   UNK N   1      35.375  13.851  10.736  0.00  0.00     0.034 A 
HETATM   12  C   UNK N   1      34.980  13.885  12.078  0.00  0.00     0.043 A 
HETATM   13  C   UNK N   1      35.820  13.370  13.045  0.00  0.00    -0.006 A 
HETATM   14  C   UNK N   1      37.022  12.826  12.732  0.00  0.00     0.042 A 
HETATM   15  C   UNK N   1      35.657  13.294  14.404  0.00  0.00     0.030 A 
HETATM   16  C   UNK N   1      37.473  12.757  11.416  0.00  0.00     0.033 A 
HETATM   17  N   UNK N   1      37.652  12.397  13.835  0.00  0.00    -0.365 N 
HETATM   18  C   UNK N   1      36.632  13.279  10.409  0.00  0.00     0.032 A 
HETATM   19  C   UNK N   1      36.820  12.682  14.870  0.00  0.00     0.089 A 
HETATM   20  H   UNK N   1      38.535  11.965  13.885  0.00  0.00     0.165 HD
ENDBRANCH   9  11
ENDBRANCH   1   9
BRANCH   2  21
HETATM   21  N   UNK N   1      35.065  17.169  10.826  0.00  0.00    -0.382 N 
HETATM   22  H   UNK N   1      35.972  16.954  11.145  0.00  0.00     0.157 HD
HETATM   23  H   UNK N   1      34.405  17.556  11.445  0.00  0.00     0.157 HD
ENDBRANCH   2  21
BRANCH   6  24
HETATM   24  C   UNK N   1      33.674  16.465   5.414  0.00  0.00    -0.005 A 
HETATM   25  C   UNK N   1      32.929  17.456   4.758  0.00  0.00     0.030 A 
HETATM   26  C   UNK N   1      32.597  17.294   3.414  0.00  0.00     0.088 A 
HETATM   27  N   UNK N   1      32.993  16.180   2.744  0.00  0.00    -0.375 N 
HETATM   28  C   UNK N   1      33.716  15.202   3.355  0.00  0.00     0.088 A 
ATOM     29  HN  UNK N   1      32.743  16.074   1.761  1.00  0.00     0.164 HD
HETATM   30  C   UNK N   1      34.070  15.328   4.700  0.00  0.00     0.030 A 
ENDBRANCH   6  24
TORSDOF 4
ENDMDL
MODEL 5
REMARK VINA RESULT:      -7.2      1.293      7.962
REMARK  4 active torsions:
REMARK  status: ('A' for Active; 'I' for Inactive)
REMARK    1  A    between atoms: C_9  and  N_10 
REMARK    2  A    between atoms: N_10  and  C_11 
REMARK    3  A    between atoms: C_12  and  N_26 
REMARK    4  A    between atoms: C_16  and  C_19 
ROOT
HETATM    1  C   UNK N   1      35.081  12.319  13.096  0.00  0.00     0.150 A 
HETATM    2  C   UNK N   1      34.294  11.162  12.781  0.00  0.00     0.143 A 
HETATM    3  N   UNK N   1      33.784  10.414  13.790  0.00  0.00    -0.347 N 
ATOM      4  HN  UNK N   1      33.224   9.593  13.560  1.00  0.00     0.167 HD
HETATM    5  C   UNK N   1      33.992  10.721  15.088  0.00  0.00     0.120 A 
HETATM    6  C   UNK N   1      34.752  11.839  15.416  0.00  0.00     0.059 A 
HETATM    7  N   UNK N   1      35.272  12.600  14.417  0.00  0.00    -0.338 N 
ATOM      8  HN  UNK N   1      35.829  13.418  14.666  1.00  0.00     0.167 HD
ENDROOT
BRANCH   1   9
HETATM    9  N   UNK N   1      35.695  13.221  12.158  0.00  0.00    -0.339 N 
HETATM   10  H   UNK N   1      36.646  13.013  12.008  0.00  0.00     0.167 HD
BRANCH   9  11
HETATM   11  C   UNK N   1      35.261  14.346  11.392  0.00  0.00     0.034 A 
HETATM   12  C   UNK N   1      34.196  14.279  10.486  0.00  0.00     0.043 A 
HETATM   13  C   UNK N   1      33.836  15.408   9.778  0.00  0.00    -0.006 A 
HETATM   14  C   UNK N   1      34.484  16.589   9.937  0.00  0.00     0.042 A 
HETATM   15  C   UNK N   1      32.845  15.586   8.847  0.00  0.00     0.030 A 
HETATM   16  C   UNK N   1      35.550  16.725  10.824  0.00  0.00     0.033 A 
HETATM   17  N   UNK N   1      33.956  17.532   9.144  0.00  0.00    -0.365 N 
HETATM   18  C   UNK N   1      35.937  15.583  11.558  0.00  0.00     0.032 A 
HETATM   19  C   UNK N   1      32.946  16.925   8.469  0.00  0.00     0.089 A 
HETATM   20  H   UNK N   1      34.240  18.471   9.067  0.00  0.00     0.165 HD
ENDBRANCH   9  11
ENDBRANCH   1   9
BRANCH   2  21
HETATM   21  N   UNK N   1      34.015  10.746  11.473  0.00  0.00    -0.382 N 
HETATM   22  H   UNK N   1      34.625  10.987  10.739  0.00  0.00     0.157 HD
HETATM   23  H   UNK N   1      33.209  10.213  11.288  0.00  0.00     0.157 HD
ENDBRANCH   2  21
BRANCH   6  24
HETATM   24  C   UNK N   1      34.990  12.189  16.829  0.00  0.00    -0.005 A 
HETATM   25  C   UNK N   1      35.231  11.188  17.782  0.00  0.00     0.030 A 
HETATM   26  C   UNK N   1      35.452  11.540  19.113  0.00  0.00     0.088 A 
HETATM   27  N   UNK N   1      35.434  12.848  19.484  0.00  0.00    -0.375 N 
HETATM   28  C   UNK N   1      35.202  13.839  18.580  0.00  0.00     0.088 A 
ATOM     29  HN  UNK N   1      35.597  13.092  20.460  1.00  0.00     0.164 HD
HETATM   30  C   UNK N   1      34.977  13.527  17.238  0.00  0.00     0.030 A 
ENDBRANCH   6  24
TORSDOF 4
ENDMDL
MODEL 6
REMARK VINA RESULT:      -7.2      2.959      9.319
REMARK  4 active torsions:
REMARK  status: ('A' for Active; 'I' for Inactive)
REMARK    1  A    between atoms: C_9  and  N_10 
REMARK    2  A    between atoms: N_10  and  C_11 
REMARK    3  A    between atoms: C_12  and  N_26 
REMARK    4  A    between atoms: C_16  and  C_19 
ROOT
HETATM    1  C   UNK N   1      33.142  16.285   9.244  0.00  0.00     0.150 A 
HETATM    2  C   UNK N   1      33.998  17.405   8.987  0.00  0.00     0.143 A 
HETATM    3  N   UNK N   1      35.166  17.517   9.665  0.00  0.00    -0.347 N 
ATOM      4  HN  UNK N   1      35.771  18.316   9.477  1.00  0.00     0.167 HD
HETATM    5  C   UNK N   1      35.554  16.604  10.582  0.00  0.00     0.120 A 
HETATM    6  C   UNK N   1      34.738  15.510  10.848  0.00  0.00     0.059 A 
HETATM    7  N   UNK N   1      33.563  15.383  10.176  0.00  0.00    -0.338 N 
ATOM      8  HN  UNK N   1      32.971  14.576  10.378  1.00  0.00     0.167 HD
ENDROOT
BRANCH   1   9
HETATM    9  N   UNK N   1      31.875  16.009   8.620  0.00  0.00    -0.339 N 
HETATM   10  H   UNK N   1      31.778  15.061   8.374  0.00  0.00     0.167 HD
BRANCH   9  11
HETATM   11  C   UNK N   1      30.723  16.778   8.271  0.00  0.00     0.034 A 
HETATM   12  C   UNK N   1      30.347  17.017   6.944  0.00  0.00     0.043 A 
HETATM   13  C   UNK N   1      29.221  17.774   6.684  0.00  0.00    -0.006 A 
HETATM   14  C   UNK N   1      28.462  18.293   7.682  0.00  0.00     0.042 A 
HETATM   15  C   UNK N   1      28.663  18.140   5.487  0.00  0.00     0.030 A 
HETATM   16  C   UNK N   1      28.780  18.090   9.023  0.00  0.00     0.033 A 
HETATM   17  N   UNK N   1      27.430  18.986   7.182  0.00  0.00    -0.365 N 
HETATM   18  C   UNK N   1      29.927  17.321   9.313  0.00  0.00     0.032 A 
HETATM   19  C   UNK N   1      27.544  18.899   5.831  0.00  0.00     0.089 A 
HETATM   20  H   UNK N   1      26.732  19.460   7.688  0.00  0.00     0.165 HD
ENDBRANCH   9  11
ENDBRANCH   1   9
BRANCH   2  21
HETATM   21  N   UNK N   1      33.699  18.414   8.062  0.00  0.00    -0.382 N 
HETATM   22  H   UNK N   1      33.084  19.142   8.309  0.00  0.00     0.157 HD
HETATM   23  H   UNK N   1      34.102  18.395   7.164  0.00  0.00     0.157 HD
ENDBRANCH   2  21
BRANCH   6  24
HETATM   24  C   UNK N   1      35.146  14.502  11.847  0.00  0.00    -0.005 A 
HETATM   25  C   UNK N   1      35.986  14.854  12.913  0.00  0.00     0.030 A 
HETATM   26  C   UNK N   1      36.361  13.888  13.846  0.00  0.00     0.088 A 
HETATM   27  N   UNK N   1      35.913  12.610  13.720  0.00  0.00    -0.375 N 
HETATM   28  C   UNK N   1      35.097  12.241  12.694  0.00  0.00     0.088 A 
ATOM     29  HN  UNK N   1      36.195  11.913  14.408  1.00  0.00     0.164 HD
HETATM   30  C   UNK N   1      34.699  13.181  11.741  0.00  0.00     0.030 A 
ENDBRANCH   6  24
TORSDOF 4
ENDMDL
MODEL 7
REMARK VINA RESULT:      -7.0      8.589     14.908
REMARK  4 active torsions:
REMARK  status: ('A' for Active; 'I' for Inactive)
REMARK    1  A    between atoms: C_9  and  N_10 
REMARK    2  A    between atoms: N_10  and  C_11 
REMARK    3  A    between atoms: C_12  and  N_26 
REMARK    4  A    between atoms: C_16  and  C_19 
ROOT
HETATM    1  C   UNK N   1      26.119  17.358   5.150  0.00  0.00     0.150 A 
HETATM    2  C   UNK N   1      26.682  16.631   4.050  0.00  0.00     0.143 A 
HETATM    3  N   UNK N   1      27.984  16.258   4.098  0.00  0.00    -0.347 N 
ATOM      4  HN  UNK N   1      28.378  15.740   3.313  1.00  0.00     0.167 HD
HETATM    5  C   UNK N   1      28.776  16.551   5.153  0.00  0.00     0.120 A 
HETATM    6  C   UNK N   1      28.251  17.257   6.230  0.00  0.00     0.059 A 
HETATM    7  N   UNK N   1      26.947  17.638   6.197  0.00  0.00    -0.338 N 
ATOM      8  HN  UNK N   1      26.570  18.156   6.992  1.00  0.00     0.167 HD
ENDROOT
BRANCH   1   9
HETATM    9  N   UNK N   1      24.765  17.829   5.266  0.00  0.00    -0.339 N 
HETATM   10  H   UNK N   1      24.342  17.546   6.108  0.00  0.00     0.167 HD
BRANCH   9  11
HETATM   11  C   UNK N   1      23.884  18.610   4.455  0.00  0.00     0.034 A 
HETATM   12  C   UNK N   1      22.519  18.327   4.333  0.00  0.00     0.043 A 
HETATM   13  C   UNK N   1      21.731  19.125   3.527  0.00  0.00    -0.006 A 
HETATM   14  C   UNK N   1      22.242  20.182   2.848  0.00  0.00     0.042 A 
HETATM   15  C   UNK N   1      20.390  19.047   3.251  0.00  0.00     0.030 A 
HETATM   16  C   UNK N   1      23.591  20.519   2.928  0.00  0.00     0.033 A 
HETATM   17  N   UNK N   1      21.286  20.798   2.137  0.00  0.00    -0.365 N 
HETATM   18  C   UNK N   1      24.417  19.717   3.745  0.00  0.00     0.032 A 
HETATM   19  C   UNK N   1      20.143  20.107   2.378  0.00  0.00     0.089 A 
HETATM   20  H   UNK N   1      21.392  21.588   1.561  0.00  0.00     0.165 HD
ENDBRANCH   9  11
ENDBRANCH   1   9
BRANCH   2  21
HETATM   21  N   UNK N   1      25.958  16.274   2.904  0.00  0.00    -0.382 N 
HETATM   22  H   UNK N   1      24.984  16.408   2.876  0.00  0.00     0.157 HD
HETATM   23  H   UNK N   1      26.425  15.889   2.127  0.00  0.00     0.157 HD
ENDBRANCH   2  21
BRANCH   6  24
HETATM   24  C   UNK N   1      29.102  17.586   7.390  0.00  0.00    -0.005 A 
HETATM   25  C   UNK N   1      30.477  17.310   7.368  0.00  0.00     0.030 A 
HETATM   26  C   UNK N   1      31.263  17.628   8.475  0.00  0.00     0.088 A 
HETATM   27  N   UNK N   1      30.697  18.202   9.570  0.00  0.00    -0.375 N 
HETATM   28  C   UNK N   1      29.366  18.480   9.618  0.00  0.00     0.088 A 
ATOM     29  HN  UNK N   1      31.283  18.428  10.373  1.00  0.00     0.164 HD
HETATM   30  C   UNK N   1      28.545  18.178   8.529  0.00  0.00     0.030 A 
ENDBRANCH   6  24
TORSDOF 4
ENDMDL
MODEL 8
REMARK VINA RESULT:      -7.0      3.281      9.593
REMARK  4 active torsions:
REMARK  status: ('A' for Active; 'I' for Inactive)
REMARK    1  A    between atoms: C_9  and  N_10 
REMARK    2  A    between atoms: N_10  and  C_11 
REMARK    3  A    between atoms: C_12  and  N_26 
REMARK    4  A    between atoms: C_16  and  C_19 
ROOT
HETATM    1  C   UNK N   1      34.466  16.284   8.352  0.00  0.00     0.150 A 
HETATM    2  C   UNK N   1      34.807  17.457   9.102  0.00  0.00     0.143 A 
HETATM    3  N   UNK N   1      35.146  17.333  10.410  0.00  0.00    -0.347 N 
ATOM      4  HN  UNK N   1      35.389  18.170  10.938  1.00  0.00     0.167 HD
HETATM    5  C   UNK N   1      35.171  16.135  11.033  0.00  0.00     0.120 A 
HETATM    6  C   UNK N   1      34.843  14.985  10.325  0.00  0.00     0.059 A 
HETATM    7  N   UNK N   1      34.501  15.092   9.013  0.00  0.00    -0.338 N 
ATOM      8  HN  UNK N   1      34.261  14.242   8.501  1.00  0.00     0.167 HD
ENDROOT
BRANCH   1   9
HETATM    9  N   UNK N   1      34.085  16.231   6.966  0.00  0.00    -0.339 N 
HETATM   10  H   UNK N   1      34.761  15.780   6.410  0.00  0.00     0.167 HD
BRANCH   9  11
HETATM   11  C   UNK N   1      32.964  16.675   6.199  0.00  0.00     0.034 A 
HETATM   12  C   UNK N   1      31.659  16.683   6.703  0.00  0.00     0.043 A 
HETATM   13  C   UNK N   1      30.625  17.123   5.900  0.00  0.00    -0.006 A 
HETATM   14  C   UNK N   1      30.837  17.553   4.632  0.00  0.00     0.042 A 
HETATM   15  C   UNK N   1      29.283  17.219   6.166  0.00  0.00     0.030 A 
HETATM   16  C   UNK N   1      32.112  17.573   4.071  0.00  0.00     0.033 A 
HETATM   17  N   UNK N   1      29.685  17.926   4.057  0.00  0.00    -0.365 N 
HETATM   18  C   UNK N   1      33.185  17.126   4.872  0.00  0.00     0.032 A 
HETATM   19  C   UNK N   1      28.722  17.724   4.993  0.00  0.00     0.089 A 
HETATM   20  H   UNK N   1      29.562  18.275   3.145  0.00  0.00     0.165 HD
ENDBRANCH   9  11
ENDBRANCH   1   9
BRANCH   2  21
HETATM   21  N   UNK N   1      34.813  18.750   8.562  0.00  0.00    -0.382 N 
HETATM   22  H   UNK N   1      35.624  19.098   8.128  0.00  0.00     0.157 HD
HETATM   23  H   UNK N   1      34.005  19.310   8.618  0.00  0.00     0.157 HD
ENDBRANCH   2  21
BRANCH   6  24
HETATM   24  C   UNK N   1      34.865  13.668  10.991  0.00  0.00    -0.005 A 
HETATM   25  C   UNK N   1      34.656  12.492  10.255  0.00  0.00     0.030 A 
HETATM   26  C   UNK N   1      34.680  11.258  10.903  0.00  0.00     0.088 A 
HETATM   27  N   UNK N   1      34.905  11.197  12.243  0.00  0.00    -0.375 N 
HETATM   28  C   UNK N   1      35.111  12.321  12.981  0.00  0.00     0.088 A 
ATOM     29  HN  UNK N   1      34.919  10.288  12.705  1.00  0.00     0.164 HD
HETATM   30  C   UNK N   1      35.095  13.576  12.368  0.00  0.00     0.030 A 
ENDBRANCH   6  24
TORSDOF 4
ENDMDL
MODEL 9
REMARK VINA RESULT:      -6.9      1.642      2.451
REMARK  4 active torsions:
REMARK  status: ('A' for Active; 'I' for Inactive)
REMARK    1  A    between atoms: C_9  and  N_10 
REMARK    2  A    between atoms: N_10  and  C_11 
REMARK    3  A    between atoms: C_12  and  N_26 
REMARK    4  A    between atoms: C_16  and  C_19 
ROOT
HETATM    1  C   UNK N   1      35.326  12.710  13.632  0.00  0.00     0.150 A 
HETATM    2  C   UNK N   1      36.720  13.035  13.552  0.00  0.00     0.143 A 
HETATM    3  N   UNK N   1      37.239  13.443  12.368  0.00  0.00    -0.347 N 
ATOM      4  HN  UNK N   1      38.231  13.674  12.318  1.00  0.00     0.167 HD
HETATM    5  C   UNK N   1      36.484  13.552  11.253  0.00  0.00     0.120 A 
HETATM    6  C   UNK N   1      35.130  13.241  11.308  0.00  0.00     0.059 A 
HETATM    7  N   UNK N   1      34.594  12.831  12.488  0.00  0.00    -0.338 N 
ATOM      8  HN  UNK N   1      33.599  12.604  12.519  1.00  0.00     0.167 HD
ENDROOT
BRANCH   1   9
HETATM    9  N   UNK N   1      34.613  12.264  14.800  0.00  0.00    -0.339 N 
HETATM   10  H   UNK N   1      33.728  11.894  14.578  0.00  0.00     0.167 HD
BRANCH   9  11
HETATM   11  C   UNK N   1      34.877  12.228  16.203  0.00  0.00     0.034 A 
HETATM   12  C   UNK N   1      35.180  11.045  16.885  0.00  0.00     0.043 A 
HETATM   13  C   UNK N   1      35.420  11.088  18.245  0.00  0.00    -0.006 A 
HETATM   14  C   UNK N   1      35.374  12.251  18.942  0.00  0.00     0.042 A 
HETATM   15  C   UNK N   1      35.729  10.077  19.117  0.00  0.00     0.030 A 
HETATM   16  C   UNK N   1      35.082  13.464  18.323  0.00  0.00     0.033 A 
HETATM   17  N   UNK N   1      35.641  12.038  20.239  0.00  0.00    -0.365 N 
HETATM   18  C   UNK N   1      34.831  13.444  16.934  0.00  0.00     0.032 A 
HETATM   19  C   UNK N   1      35.860  10.703  20.357  0.00  0.00     0.089 A 
HETATM   20  H   UNK N   1      35.672  12.710  20.957  0.00  0.00     0.165 HD
ENDBRANCH   9  11
ENDBRANCH   1   9
BRANCH   2  21
HETATM   21  N   UNK N   1      37.599  12.957  14.641  0.00  0.00    -0.382 N 
HETATM   22  H   UNK N   1      37.293  13.217  15.540  0.00  0.00     0.157 HD
HETATM   23  H   UNK N   1      38.521  12.641  14.506  0.00  0.00     0.157 HD
ENDBRANCH   2  21
BRANCH   6  24
HETATM   24  C   UNK N   1      34.290  13.354  10.100  0.00  0.00    -0.005 A 
HETATM   25  C   UNK N   1      33.561  14.525   9.845  0.00  0.00     0.030 A 
HETATM   26  C   UNK N   1      32.772  14.612   8.698  0.00  0.00     0.088 A 
HETATM   27  N   UNK N   1      32.713  13.566   7.832  0.00  0.00    -0.375 N 
HETATM   28  C   UNK N   1      33.410  12.418   8.054  0.00  0.00     0.088 A 
ATOM     29  HN  UNK N   1      32.132  13.642   6.997  1.00  0.00     0.164 HD
HETATM   30  C   UNK N   1      34.211  12.293   9.191  0.00  0.00     0.030 A 
ENDBRANCH   6  24
TORSDOF 4
ENDMDL
