REMARK  18 active torsions:
REMARK  status: ('A' for Active; 'I' for Inactive)
REMARK    1  A    between atoms: N_41  and  C_2 
REMARK    2  A    between atoms: C_20  and  C_19 
REMARK    3  A    between atoms: N_45  and  C_19 
REMARK    4  A    between atoms: N_46  and  C_20 
REMARK    5  A    between atoms: C_28  and  C_23 
REMARK    6  A    between atoms: N_48  and  C_23 
REMARK    7  A    between atoms: C_28  and  C_25 
REMARK    8  A    between atoms: C_28  and  C_26 
REMARK    9  A    between atoms: N_51  and  C_27 
REMARK   10  A    between atoms: N_56  and  C_29 
REMARK   11  A    between atoms: C_31  and  O_58 
REMARK   12  A    between atoms: C_32  and  O_59 
REMARK   13  A    between atoms: C_33  and  C_37 
REMARK   14  A    between atoms: N_48  and  C_34 
REMARK   15  A    between atoms: C_38  and  C_35 
REMARK       I    between atoms: N_45  and  C_38 
REMARK   16  A    between atoms: C_39  and  N_57 
REMARK   17  A    between atoms: N_51  and  C_40 
REMARK   18  A    between atoms: O_62  and  C_40 
ROOT
HETATM    1  C   UNK N   1      -1.515   5.359   0.350  0.00  0.00     0.143 C 
HETATM    2  N   UNK N   1      -0.761   6.087  -0.404  0.00  0.00    -0.373 N 
ATOM      3  HN  UNK N   1      -0.830   6.002  -1.418  1.00  0.00     0.161 HD
HETATM    4  O   UNK N   1      -1.386   5.427   1.694  0.00  0.00    -0.348 OA
HETATM    5  H   UNK N   1      -1.300   5.373   2.626  0.00  0.00     0.219 HD
ENDROOT
BRANCH   1   6
HETATM    6  C   UNK N   1      -2.602   4.484  -0.256  0.00  0.00     0.229 C 
HETATM    7  C   UNK N   1      -3.369   3.705   0.808  0.00  0.00     0.188 C 
HETATM    8  C   UNK N   1      -4.060   2.710  -0.061  0.00  0.00     0.199 C 
HETATM    9  C   UNK N   1      -2.951   2.370  -1.057  0.00  0.00     0.262 C 
HETATM   10  O   UNK N   1      -2.114   3.525  -1.171  0.00  0.00    -0.347 OA
BRANCH   7  11
HETATM   11  O   UNK N   1      -4.266   4.516   1.512  0.00  0.00    -0.390 OA
HETATM   12  H   UNK N   1      -4.089   5.336   1.999  0.00  0.00     0.210 HD
ENDBRANCH   7  11
BRANCH   8  13
HETATM   13  O   UNK N   1      -4.582   1.619   0.638  0.00  0.00    -0.388 OA
HETATM   14  H   UNK N   1      -5.419   1.554   1.123  0.00  0.00     0.210 HD
ENDBRANCH   8  13
BRANCH   9  15
HETATM   15  N   UNK N   1      -2.137   1.177  -0.769  0.00  0.00    -0.297 N 
HETATM   16  C   UNK N   1      -2.536  -0.125  -0.771  0.00  0.00     0.188 A 
HETATM   17  N   UNK N   1      -1.465  -0.972  -0.726  0.00  0.00    -0.346 N 
HETATM   18  C   UNK N   1      -0.394  -0.154  -0.691  0.00  0.00     0.122 A 
ATOM     19  HN  UNK N   1      -1.474  -1.992  -0.719  1.00  0.00     0.167 HD
HETATM   20  C   UNK N   1       0.976  -0.424  -0.747  0.00  0.00     0.134 A 
HETATM   21  C   UNK N   1      -0.810   1.126  -0.685  0.00  0.00     0.143 A 
HETATM   22  N   UNK N   1       1.826   0.629  -0.659  0.00  0.00    -0.322 N 
HETATM   23  C   UNK N   1       1.370   1.914  -0.598  0.00  0.00     0.177 A 
ATOM     24  HN  UNK N   1       2.831   0.456  -0.638  1.00  0.00     0.169 HD
HETATM   25  N   UNK N   1       0.042   2.172  -0.670  0.00  0.00    -0.322 N 
ATOM     26  HN  UNK N   1      -0.305   3.131  -0.711  1.00  0.00     0.169 HD
BRANCH  20  27
HETATM   27  N   UNK N   1       1.521  -1.704  -0.935  0.00  0.00    -0.373 N 
HETATM   28  H   UNK N   1       2.497  -1.780  -1.042  0.00  0.00     0.161 HD
BRANCH  27  29
HETATM   29  C   UNK N   1       0.747  -2.898  -0.980  0.00  0.00     0.135 C 
BRANCH  29  30
HETATM   30  C   UNK N   1       1.048  -3.676   0.281  0.00  0.00     0.069 C 
BRANCH  30  31
HETATM   31  C   UNK N   1       2.488  -4.161   0.304  0.00  0.00    -0.048 A 
HETATM   32  C   UNK N   1       3.523  -3.206   0.299  0.00  0.00     0.008 A 
HETATM   33  C   UNK N   1       4.862  -3.596   0.279  0.00  0.00     0.001 A 
HETATM   34  C   UNK N   1       5.185  -4.952   0.266  0.00  0.00     0.000 A 
HETATM   35  C   UNK N   1       4.169  -5.913   0.283  0.00  0.00     0.001 A 
HETATM   36  C   UNK N   1       2.823  -5.521   0.302  0.00  0.00     0.008 A 
ENDBRANCH  30  31
BRANCH  30  37
HETATM   37  C   UNK N   1      -0.071  -4.642   0.482  0.00  0.00    -0.048 A 
HETATM   38  C   UNK N   1      -0.276  -5.725  -0.385  0.00  0.00     0.008 A 
HETATM   39  C   UNK N   1      -1.415  -6.524  -0.243  0.00  0.00     0.001 A 
HETATM   40  C   UNK N   1      -2.362  -6.225   0.742  0.00  0.00     0.000 A 
HETATM   41  C   UNK N   1      -2.165  -5.138   1.597  0.00  0.00     0.001 A 
HETATM   42  C   UNK N   1      -1.022  -4.348   1.465  0.00  0.00     0.008 A 
ENDBRANCH  30  37
ENDBRANCH  29  30
ENDBRANCH  27  29
ENDBRANCH  20  27
BRANCH  23  43
HETATM   43  C   UNK N   1       2.291   3.015  -0.347  0.00  0.00     0.285 C 
HETATM   44  N   UNK N   1       3.343   2.864   0.485  0.00  0.00    -0.353 N 
HETATM   45  H   UNK N   1       3.943   3.629   0.638  0.00  0.00     0.162 HD
HETATM   46  O   UNK N   1       2.048   4.111  -0.809  0.00  0.00    -0.264 OA
BRANCH  44  47
HETATM   47  C   UNK N   1       3.614   1.617   1.157  0.00  0.00     0.142 C 
BRANCH  47  48
HETATM   48  C   UNK N   1       4.822   1.765   2.040  0.00  0.00     0.143 C 
BRANCH  48  49
HETATM   49  N   UNK N   1       6.051   2.113   1.353  0.00  0.00    -0.355 N 
HETATM   50  C   UNK N   1       6.287   2.234   0.080  0.00  0.00     0.213 C 
ATOM     51  HN  UNK N   1       6.852   2.290   1.960  1.00  0.00     0.163 HD
BRANCH  50  52
HETATM   52  N   UNK N   1       7.604   2.505  -0.352  0.00  0.00    -0.352 N 
HETATM   53  H   UNK N   1       7.755   2.876  -1.251  0.00  0.00     0.163 HD
BRANCH  52  54
HETATM   54  C   UNK N   1       8.729   2.242   0.513  0.00  0.00     0.088 C 
HETATM   55  C   UNK N   1       8.557   0.847   1.142  0.00  0.00     0.045 C 
HETATM   56  C   UNK N   1       8.418  -0.173   0.017  0.00  0.00     0.126 C 
HETATM   57  N   UNK N   1       9.661  -0.120  -0.701  0.00  0.00    -0.367 N 
HETATM   58  C   UNK N   1      10.014   1.124  -1.358  0.00  0.00     0.126 C 
HETATM   59  C   UNK N   1      10.011   2.264  -0.327  0.00  0.00     0.045 C 
BRANCH  57  60
HETATM   60  C   UNK N   1      10.663  -1.060  -0.361  0.00  0.00     0.102 A 
HETATM   61  C   UNK N   1      10.321  -2.232   0.332  0.00  0.00     0.048 A 
HETATM   62  C   UNK N   1      11.322  -3.094   0.762  0.00  0.00     0.005 A 
HETATM   63  C   UNK N   1      12.656  -2.772   0.521  0.00  0.00     0.017 A 
HETATM   64  C   UNK N   1      12.965  -1.599  -0.172  0.00  0.00     0.089 A 
HETATM   65  N   UNK N   1      11.973  -0.775  -0.598  0.00  0.00    -0.352 N 
ATOM     66  HN  UNK N   1      12.214   0.076  -1.107  1.00  0.00     0.166 HD
ENDBRANCH  57  60
ENDBRANCH  52  54
ENDBRANCH  50  52
BRANCH  50  67
HETATM   67  O   UNK N   1       5.346   2.009  -0.855  0.00  0.00    -0.333 OA
HETATM   68  H   UNK N   1       4.883   2.499  -1.507  0.00  0.00     0.220 HD
ENDBRANCH  50  67
ENDBRANCH  48  49
ENDBRANCH  47  48
ENDBRANCH  44  47
ENDBRANCH  23  43
ENDBRANCH   9  15
ENDBRANCH   1   6
BRANCH   2  69
HETATM   69  C   UNK N   1       0.184   7.022   0.174  0.00  0.00     0.117 C 
HETATM   70  C   UNK N   1       1.608   6.727  -0.242  0.00  0.00     0.026 C 
ENDBRANCH   2  69
TORSDOF 18
