MODEL 1
REMARK VINA RESULT:      -5.7      0.000      0.000
REMARK  14 active torsions:
REMARK  status: ('A' for Active; 'I' for Inactive)
REMARK    1  A    between atoms: C_2  and  C_3 
REMARK    2  A    between atoms: C_2  and  N_6 
REMARK    3  A    between atoms: C_3  and  O_5 
REMARK       I    between atoms: N_6  and  C_7 
REMARK    4  A    between atoms: C_7  and  C_9 
REMARK    5  A    between atoms: C_9  and  C_10 
REMARK    6  A    between atoms: C_9  and  N_15 
REMARK    7  A    between atoms: C_10  and  C_11 
REMARK    8  A    between atoms: C_11  and  C_12 
REMARK    9  A    between atoms: C_12  and  O_14 
REMARK       I    between atoms: N_15  and  C_16 
REMARK   10  A    between atoms: C_16  and  C_18 
REMARK   11  A    between atoms: C_18  and  C_19 
REMARK   12  A    between atoms: C_19  and  C_20 
REMARK   13  A    between atoms: C_20  and  C_21 
REMARK   14  A    between atoms: C_22  and  C_21 
ROOT
HETATM    1  C   UNK N   1      29.319  17.354   6.109  0.00  0.00     0.177 C 
ENDROOT
BRANCH   1   2
HETATM    2  C   UNK N   1      27.820  17.288   6.241  0.00  0.00     0.241 C 
HETATM    3  N   UNK N   1      27.057  18.402   6.102  0.00  0.00    -0.345 N 
HETATM    4  H   UNK N   1      26.085  18.318   6.238  0.00  0.00     0.163 HD
HETATM    5  O   UNK N   1      27.277  16.222   6.490  0.00  0.00    -0.271 OA
BRANCH   3   6
HETATM    6  C   UNK N   1      27.590  19.707   5.764  0.00  0.00     0.178 C 
HETATM    7  C   UNK N   1      27.215  20.042   4.333  0.00  0.00     0.043 C 
BRANCH   6   8
HETATM    8  C   UNK N   1      27.086  20.778   6.689  0.00  0.00     0.163 C 
HETATM    9  O   UNK N   1      27.254  21.958   6.423  0.00  0.00    -0.648 OA
BRANCH   8  10
HETATM   10  O   UNK N   1      26.436  20.431   7.814  0.00  0.00    -0.775 OA
HETATM   11  H   UNK N   1      26.517  19.706   8.403  0.00  0.00     0.167 HD
ENDBRANCH   8  10
ENDBRANCH   6   8
ENDBRANCH   3   6
ENDBRANCH   1   2
BRANCH   1  12
HETATM   12  C   UNK N   1      30.000  17.010   7.435  0.00  0.00     0.045 C 
BRANCH  12  13
HETATM   13  C   UNK N   1      29.808  18.095   8.485  0.00  0.00     0.112 C 
BRANCH  13  14
HETATM   14  C   UNK N   1      28.771  17.724   9.491  0.00  0.00     0.139 C 
HETATM   15  O   UNK N   1      29.059  16.977  10.411  0.00  0.00    -0.650 OA
BRANCH  14  16
HETATM   16  O   UNK N   1      27.527  18.235   9.405  0.00  0.00    -0.776 OA
HETATM   17  H   UNK N   1      27.277  19.134   9.323  0.00  0.00     0.167 HD
ENDBRANCH  14  16
ENDBRANCH  13  14
ENDBRANCH  12  13
ENDBRANCH   1  12
BRANCH   1  18
HETATM   18  N   UNK N   1      29.800  16.548   5.000  0.00  0.00    -0.348 N 
HETATM   19  C   UNK N   1      30.841  16.896   4.203  0.00  0.00     0.218 C 
HETATM   20  O   UNK N   1      31.400  17.974   4.343  0.00  0.00    -0.274 OA
HETATM   21  H   UNK N   1      29.343  15.696   4.818  0.00  0.00     0.163 HD
BRANCH  19  22
HETATM   22  C   UNK N   1      31.279  15.947   3.130  0.00  0.00     0.103 C 
BRANCH  22  23
HETATM   23  C   UNK N   1      32.783  15.767   3.136  0.00  0.00     0.009 C 
BRANCH  23  24
HETATM   24  C   UNK N   1      33.187  14.989   4.369  0.00  0.00     0.002 C 
BRANCH  24  25
HETATM   25  C   UNK N   1      34.267  15.716   5.163  0.00  0.00     0.016 C 
BRANCH  25  26
HETATM   26  C   UNK N   1      33.863  16.047   6.597  0.00  0.00     0.059 C 
HETATM   27  C   UNK N   1      33.827  17.559   6.758  0.00  0.00     0.027 C 
HETATM   28  C   UNK N   1      34.147  17.937   8.201  0.00  0.00     0.087 C 
HETATM   29  S   UNK N   1      33.936  16.479   9.259  0.00  0.00    -0.097 SA
HETATM   30  S   UNK N   1      35.028  15.384   7.819  0.00  0.00    -0.093 SA
ENDBRANCH  25  26
ENDBRANCH  24  25
ENDBRANCH  23  24
ENDBRANCH  22  23
ENDBRANCH  19  22
ENDBRANCH   1  18
TORSDOF 14
ENDMDL
MODEL 2
REMARK VINA RESULT:      -5.7      7.100      9.338
REMARK  14 active torsions:
REMARK  status: ('A' for Active; 'I' for Inactive)
REMARK    1  A    between atoms: C_2  and  C_3 
REMARK    2  A    between atoms: C_2  and  N_6 
REMARK    3  A    between atoms: C_3  and  O_5 
REMARK       I    between atoms: N_6  and  C_7 
REMARK    4  A    between atoms: C_7  and  C_9 
REMARK    5  A    between atoms: C_9  and  C_10 
REMARK    6  A    between atoms: C_9  and  N_15 
REMARK    7  A    between atoms: C_10  and  C_11 
REMARK    8  A    between atoms: C_11  and  C_12 
REMARK    9  A    between atoms: C_12  and  O_14 
REMARK       I    between atoms: N_15  and  C_16 
REMARK   10  A    between atoms: C_16  and  C_18 
REMARK   11  A    between atoms: C_18  and  C_19 
REMARK   12  A    between atoms: C_19  and  C_20 
REMARK   13  A    between atoms: C_20  and  C_21 
REMARK   14  A    between atoms: C_22  and  C_21 
ROOT
HETATM    1  C   UNK N   1      21.483  17.092   3.241  0.00  0.00     0.177 C 
ENDROOT
BRANCH   1   2
HETATM    2  C   UNK N   1      20.117  16.512   3.497  0.00  0.00     0.241 C 
HETATM    3  N   UNK N   1      19.452  15.836   2.526  0.00  0.00    -0.345 N 
HETATM    4  H   UNK N   1      18.544  15.512   2.726  0.00  0.00     0.163 HD
HETATM    5  O   UNK N   1      19.587  16.660   4.588  0.00  0.00    -0.271 OA
BRANCH   3   6
HETATM    6  C   UNK N   1      20.001  15.565   1.212  0.00  0.00     0.178 C 
HETATM    7  C   UNK N   1      19.601  14.165   0.786  0.00  0.00     0.043 C 
BRANCH   6   8
HETATM    8  C   UNK N   1      19.538  16.563   0.190  0.00  0.00     0.163 C 
HETATM    9  O   UNK N   1      20.335  17.311  -0.353  0.00  0.00    -0.648 OA
BRANCH   8  10
HETATM   10  O   UNK N   1      18.234  16.622  -0.136  0.00  0.00    -0.775 OA
HETATM   11  H   UNK N   1      17.750  16.358  -0.893  0.00  0.00     0.167 HD
ENDBRANCH   8  10
ENDBRANCH   6   8
ENDBRANCH   3   6
ENDBRANCH   1   2
BRANCH   1  12
HETATM   12  C   UNK N   1      21.484  18.607   3.458  0.00  0.00     0.045 C 
BRANCH  12  13
HETATM   13  C   UNK N   1      20.573  19.333   2.479  0.00  0.00     0.112 C 
BRANCH  13  14
HETATM   14  C   UNK N   1      21.229  20.536   1.889  0.00  0.00     0.139 C 
HETATM   15  O   UNK N   1      21.379  20.614   0.682  0.00  0.00    -0.650 OA
BRANCH  14  16
HETATM   16  O   UNK N   1      21.628  21.549   2.683  0.00  0.00    -0.776 OA
HETATM   17  H   UNK N   1      21.899  21.509   3.578  0.00  0.00     0.167 HD
ENDBRANCH  14  16
ENDBRANCH  13  14
ENDBRANCH  12  13
ENDBRANCH   1  12
BRANCH   1  18
HETATM   18  N   UNK N   1      22.512  16.411   4.008  0.00  0.00    -0.348 N 
HETATM   19  C   UNK N   1      23.344  15.470   3.495  0.00  0.00     0.218 C 
HETATM   20  O   UNK N   1      23.219  15.089   2.340  0.00  0.00    -0.274 OA
HETATM   21  H   UNK N   1      22.611  16.647   4.958  0.00  0.00     0.163 HD
BRANCH  19  22
HETATM   22  C   UNK N   1      24.405  14.885   4.377  0.00  0.00     0.103 C 
BRANCH  22  23
HETATM   23  C   UNK N   1      25.686  14.640   3.606  0.00  0.00     0.009 C 
BRANCH  23  24
HETATM   24  C   UNK N   1      26.780  15.524   4.165  0.00  0.00     0.002 C 
BRANCH  24  25
HETATM   25  C   UNK N   1      26.854  16.859   3.430  0.00  0.00     0.016 C 
BRANCH  25  26
HETATM   26  C   UNK N   1      26.410  18.053   4.269  0.00  0.00     0.059 C 
HETATM   27  C   UNK N   1      25.246  18.738   3.568  0.00  0.00     0.027 C 
HETATM   28  C   UNK N   1      25.237  20.225   3.906  0.00  0.00     0.087 C 
HETATM   29  S   UNK N   1      26.258  20.507   5.378  0.00  0.00    -0.097 SA
HETATM   30  S   UNK N   1      27.729  19.279   4.487  0.00  0.00    -0.093 SA
ENDBRANCH  25  26
ENDBRANCH  24  25
ENDBRANCH  23  24
ENDBRANCH  22  23
ENDBRANCH  19  22
ENDBRANCH   1  18
TORSDOF 14
ENDMDL
MODEL 3
REMARK VINA RESULT:      -5.7      7.778     10.197
REMARK  14 active torsions:
REMARK  status: ('A' for Active; 'I' for Inactive)
REMARK    1  A    between atoms: C_2  and  C_3 
REMARK    2  A    between atoms: C_2  and  N_6 
REMARK    3  A    between atoms: C_3  and  O_5 
REMARK       I    between atoms: N_6  and  C_7 
REMARK    4  A    between atoms: C_7  and  C_9 
REMARK    5  A    between atoms: C_9  and  C_10 
REMARK    6  A    between atoms: C_9  and  N_15 
REMARK    7  A    between atoms: C_10  and  C_11 
REMARK    8  A    between atoms: C_11  and  C_12 
REMARK    9  A    between atoms: C_12  and  O_14 
REMARK       I    between atoms: N_15  and  C_16 
REMARK   10  A    between atoms: C_16  and  C_18 
REMARK   11  A    between atoms: C_18  and  C_19 
REMARK   12  A    between atoms: C_19  and  C_20 
REMARK   13  A    between atoms: C_20  and  C_21 
REMARK   14  A    between atoms: C_22  and  C_21 
ROOT
HETATM    1  C   UNK N   1      21.309  17.237   3.330  0.00  0.00     0.177 C 
ENDROOT
BRANCH   1   2
HETATM    2  C   UNK N   1      19.982  16.553   3.528  0.00  0.00     0.241 C 
HETATM    3  N   UNK N   1      19.410  15.835   2.528  0.00  0.00    -0.345 N 
HETATM    4  H   UNK N   1      18.522  15.440   2.689  0.00  0.00     0.163 HD
HETATM    5  O   UNK N   1      19.398  16.652   4.597  0.00  0.00    -0.271 OA
BRANCH   3   6
HETATM    6  C   UNK N   1      20.031  15.615   1.236  0.00  0.00     0.178 C 
HETATM    7  C   UNK N   1      19.746  14.196   0.783  0.00  0.00     0.043 C 
BRANCH   6   8
HETATM    8  C   UNK N   1      19.544  16.590   0.203  0.00  0.00     0.163 C 
HETATM    9  O   UNK N   1      20.327  17.332  -0.369  0.00  0.00    -0.648 OA
BRANCH   8  10
HETATM   10  O   UNK N   1      18.234  16.636  -0.100  0.00  0.00    -0.775 OA
HETATM   11  H   UNK N   1      17.659  16.047  -0.548  0.00  0.00     0.167 HD
ENDBRANCH   8  10
ENDBRANCH   6   8
ENDBRANCH   3   6
ENDBRANCH   1   2
BRANCH   1  12
HETATM   12  C   UNK N   1      21.182  18.747   3.541  0.00  0.00     0.045 C 
BRANCH  12  13
HETATM   13  C   UNK N   1      20.373  19.421   2.442  0.00  0.00     0.112 C 
BRANCH  13  14
HETATM   14  C   UNK N   1      21.111  20.558   1.819  0.00  0.00     0.139 C 
HETATM   15  O   UNK N   1      21.281  20.581   0.612  0.00  0.00    -0.650 OA
BRANCH  14  16
HETATM   16  O   UNK N   1      21.564  21.572   2.582  0.00  0.00    -0.776 OA
HETATM   17  H   UNK N   1      21.128  21.999   3.293  0.00  0.00     0.167 HD
ENDBRANCH  14  16
ENDBRANCH  13  14
ENDBRANCH  12  13
ENDBRANCH   1  12
BRANCH   1  18
HETATM   18  N   UNK N   1      22.352  16.638   4.144  0.00  0.00    -0.348 N 
HETATM   19  C   UNK N   1      23.230  15.708   3.690  0.00  0.00     0.218 C 
HETATM   20  O   UNK N   1      23.138  15.266   2.554  0.00  0.00    -0.274 OA
HETATM   21  H   UNK N   1      22.427  16.925   5.082  0.00  0.00     0.163 HD
BRANCH  19  22
HETATM   22  C   UNK N   1      24.300  15.212   4.614  0.00  0.00     0.103 C 
BRANCH  22  23
HETATM   23  C   UNK N   1      24.118  15.766   6.013  0.00  0.00     0.009 C 
BRANCH  23  24
HETATM   24  C   UNK N   1      24.689  14.787   7.015  0.00  0.00     0.002 C 
BRANCH  24  25
HETATM   25  C   UNK N   1      24.099  13.392   6.835  0.00  0.00     0.016 C 
BRANCH  25  26
HETATM   26  C   UNK N   1      23.399  12.851   8.078  0.00  0.00     0.059 C 
HETATM   27  C   UNK N   1      22.151  13.680   8.336  0.00  0.00     0.027 C 
HETATM   28  C   UNK N   1      21.837  13.700   9.829  0.00  0.00     0.087 C 
HETATM   29  S   UNK N   1      22.729  12.346  10.641  0.00  0.00    -0.097 SA
HETATM   30  S   UNK N   1      24.443  12.940   9.559  0.00  0.00    -0.093 SA
ENDBRANCH  25  26
ENDBRANCH  24  25
ENDBRANCH  23  24
ENDBRANCH  22  23
ENDBRANCH  19  22
ENDBRANCH   1  18
TORSDOF 14
ENDMDL
MODEL 4
REMARK VINA RESULT:      -5.7      7.071      9.758
REMARK  14 active torsions:
REMARK  status: ('A' for Active; 'I' for Inactive)
REMARK    1  A    between atoms: C_2  and  C_3 
REMARK    2  A    between atoms: C_2  and  N_6 
REMARK    3  A    between atoms: C_3  and  O_5 
REMARK       I    between atoms: N_6  and  C_7 
REMARK    4  A    between atoms: C_7  and  C_9 
REMARK    5  A    between atoms: C_9  and  C_10 
REMARK    6  A    between atoms: C_9  and  N_15 
REMARK    7  A    between atoms: C_10  and  C_11 
REMARK    8  A    between atoms: C_11  and  C_12 
REMARK    9  A    between atoms: C_12  and  O_14 
REMARK       I    between atoms: N_15  and  C_16 
REMARK   10  A    between atoms: C_16  and  C_18 
REMARK   11  A    between atoms: C_18  and  C_19 
REMARK   12  A    between atoms: C_19  and  C_20 
REMARK   13  A    between atoms: C_20  and  C_21 
REMARK   14  A    between atoms: C_22  and  C_21 
ROOT
HETATM    1  C   UNK N   1      22.203  17.738   4.168  0.00  0.00     0.177 C 
ENDROOT
BRANCH   1   2
HETATM    2  C   UNK N   1      23.617  17.370   3.801  0.00  0.00     0.241 C 
HETATM    3  N   UNK N   1      24.597  18.308   3.766  0.00  0.00    -0.345 N 
HETATM    4  H   UNK N   1      25.496  18.029   3.480  0.00  0.00     0.163 HD
HETATM    5  O   UNK N   1      23.891  16.214   3.516  0.00  0.00    -0.271 OA
BRANCH   3   6
HETATM    6  C   UNK N   1      24.395  19.698   4.126  0.00  0.00     0.178 C 
HETATM    7  C   UNK N   1      25.621  20.203   4.864  0.00  0.00     0.043 C 
BRANCH   6   8
HETATM    8  C   UNK N   1      24.131  20.560   2.925  0.00  0.00     0.163 C 
HETATM    9  O   UNK N   1      24.922  20.591   1.996  0.00  0.00    -0.648 OA
BRANCH   8  10
HETATM   10  O   UNK N   1      23.005  21.295   2.871  0.00  0.00    -0.775 OA
HETATM   11  H   UNK N   1      22.176  21.231   3.304  0.00  0.00     0.167 HD
ENDBRANCH   8  10
ENDBRANCH   6   8
ENDBRANCH   3   6
ENDBRANCH   1   2
BRANCH   1  12
HETATM   12  C   UNK N   1      21.287  17.678   2.944  0.00  0.00     0.045 C 
BRANCH  12  13
HETATM   13  C   UNK N   1      19.992  18.449   3.150  0.00  0.00     0.112 C 
BRANCH  13  14
HETATM   14  C   UNK N   1      20.160  19.908   2.886  0.00  0.00     0.139 C 
HETATM   15  O   UNK N   1      20.235  20.688   3.820  0.00  0.00    -0.650 OA
BRANCH  14  16
HETATM   16  O   UNK N   1      20.262  20.362   1.621  0.00  0.00    -0.776 OA
HETATM   17  H   UNK N   1      20.623  19.922   0.878  0.00  0.00     0.167 HD
ENDBRANCH  14  16
ENDBRANCH  13  14
ENDBRANCH  12  13
ENDBRANCH   1  12
BRANCH   1  18
HETATM   18  N   UNK N   1      21.711  16.948   5.283  0.00  0.00    -0.348 N 
HETATM   19  C   UNK N   1      21.272  17.475   6.454  0.00  0.00     0.218 C 
HETATM   20  O   UNK N   1      21.335  18.679   6.657  0.00  0.00    -0.274 OA
HETATM   21  H   UNK N   1      21.695  15.969   5.182  0.00  0.00     0.163 HD
BRANCH  19  22
HETATM   22  C   UNK N   1      20.731  16.554   7.504  0.00  0.00     0.103 C 
BRANCH  22  23
HETATM   23  C   UNK N   1      21.680  15.401   7.764  0.00  0.00     0.009 C 
BRANCH  23  24
HETATM   24  C   UNK N   1      20.916  14.264   8.407  0.00  0.00     0.002 C 
BRANCH  24  25
HETATM   25  C   UNK N   1      21.498  12.908   8.021  0.00  0.00     0.016 C 
BRANCH  25  26
HETATM   26  C   UNK N   1      22.329  12.255   9.122  0.00  0.00     0.059 C 
HETATM   27  C   UNK N   1      21.554  12.330  10.429  0.00  0.00     0.027 C 
HETATM   28  C   UNK N   1      22.522  12.386  11.606  0.00  0.00     0.087 C 
HETATM   29  S   UNK N   1      24.158  11.828  11.058  0.00  0.00    -0.097 SA
HETATM   30  S   UNK N   1      23.925  13.081   9.373  0.00  0.00    -0.093 SA
ENDBRANCH  25  26
ENDBRANCH  24  25
ENDBRANCH  23  24
ENDBRANCH  22  23
ENDBRANCH  19  22
ENDBRANCH   1  18
TORSDOF 14
ENDMDL
MODEL 5
REMARK VINA RESULT:      -5.6      3.994      6.688
REMARK  14 active torsions:
REMARK  status: ('A' for Active; 'I' for Inactive)
REMARK    1  A    between atoms: C_2  and  C_3 
REMARK    2  A    between atoms: C_2  and  N_6 
REMARK    3  A    between atoms: C_3  and  O_5 
REMARK       I    between atoms: N_6  and  C_7 
REMARK    4  A    between atoms: C_7  and  C_9 
REMARK    5  A    between atoms: C_9  and  C_10 
REMARK    6  A    between atoms: C_9  and  N_15 
REMARK    7  A    between atoms: C_10  and  C_11 
REMARK    8  A    between atoms: C_11  and  C_12 
REMARK    9  A    between atoms: C_12  and  O_14 
REMARK       I    between atoms: N_15  and  C_16 
REMARK   10  A    between atoms: C_16  and  C_18 
REMARK   11  A    between atoms: C_18  and  C_19 
REMARK   12  A    between atoms: C_19  and  C_20 
REMARK   13  A    between atoms: C_20  and  C_21 
REMARK   14  A    between atoms: C_22  and  C_21 
ROOT
HETATM    1  C   UNK N   1      32.009  16.818   7.715  0.00  0.00     0.177 C 
ENDROOT
BRANCH   1   2
HETATM    2  C   UNK N   1      33.388  17.233   7.276  0.00  0.00     0.241 C 
HETATM    3  N   UNK N   1      34.490  16.823   7.954  0.00  0.00    -0.345 N 
HETATM    4  H   UNK N   1      35.368  17.153   7.656  0.00  0.00     0.163 HD
HETATM    5  O   UNK N   1      33.526  17.960   6.304  0.00  0.00    -0.271 OA
BRANCH   3   6
HETATM    6  C   UNK N   1      34.448  15.927   9.093  0.00  0.00     0.178 C 
HETATM    7  C   UNK N   1      35.147  14.629   8.731  0.00  0.00     0.043 C 
BRANCH   6   8
HETATM    8  C   UNK N   1      35.089  16.530  10.310  0.00  0.00     0.163 C 
HETATM    9  O   UNK N   1      35.131  15.912  11.362  0.00  0.00    -0.648 OA
BRANCH   8  10
HETATM   10  O   UNK N   1      35.630  17.760  10.233  0.00  0.00    -0.775 OA
HETATM   11  H   UNK N   1      35.318  18.577   9.898  0.00  0.00     0.167 HD
ENDBRANCH   8  10
ENDBRANCH   6   8
ENDBRANCH   3   6
ENDBRANCH   1   2
BRANCH   1  12
HETATM   12  C   UNK N   1      31.309  17.953   8.465  0.00  0.00     0.045 C 
BRANCH  12  13
HETATM   13  C   UNK N   1      29.817  18.008   8.175  0.00  0.00     0.112 C 
BRANCH  13  14
HETATM   14  C   UNK N   1      29.023  18.365   9.386  0.00  0.00     0.139 C 
HETATM   15  O   UNK N   1      29.587  18.817  10.369  0.00  0.00    -0.650 OA
BRANCH  14  16
HETATM   16  O   UNK N   1      27.683  18.221   9.387  0.00  0.00    -0.776 OA
HETATM   17  H   UNK N   1      27.060  18.622   9.958  0.00  0.00     0.167 HD
ENDBRANCH  14  16
ENDBRANCH  13  14
ENDBRANCH  12  13
ENDBRANCH   1  12
BRANCH   1  18
HETATM   18  N   UNK N   1      31.222  16.302   6.608  0.00  0.00    -0.348 N 
HETATM   19  C   UNK N   1      31.114  14.985   6.301  0.00  0.00     0.218 C 
HETATM   20  O   UNK N   1      31.751  14.146   6.922  0.00  0.00    -0.274 OA
HETATM   21  H   UNK N   1      30.736  16.948   6.047  0.00  0.00     0.163 HD
BRANCH  19  22
HETATM   22  C   UNK N   1      30.221  14.576   5.170  0.00  0.00     0.103 C 
BRANCH  22  23
HETATM   23  C   UNK N   1      28.882  15.282   5.245  0.00  0.00     0.009 C 
BRANCH  23  24
HETATM   24  C   UNK N   1      28.737  16.201   4.052  0.00  0.00     0.002 C 
BRANCH  24  25
HETATM   25  C   UNK N   1      28.812  17.668   4.462  0.00  0.00     0.016 C 
BRANCH  25  26
HETATM   26  C   UNK N   1      27.621  18.502   3.998  0.00  0.00     0.059 C 
HETATM   27  C   UNK N   1      27.697  19.871   4.658  0.00  0.00     0.027 C 
HETATM   28  C   UNK N   1      26.294  20.442   4.835  0.00  0.00     0.087 C 
HETATM   29  S   UNK N   1      25.145  19.544   3.756  0.00  0.00    -0.097 SA
HETATM   30  S   UNK N   1      26.031  17.755   4.447  0.00  0.00    -0.093 SA
ENDBRANCH  25  26
ENDBRANCH  24  25
ENDBRANCH  23  24
ENDBRANCH  22  23
ENDBRANCH  19  22
ENDBRANCH   1  18
TORSDOF 14
ENDMDL
MODEL 6
REMARK VINA RESULT:      -5.5      7.897      9.716
REMARK  14 active torsions:
REMARK  status: ('A' for Active; 'I' for Inactive)
REMARK    1  A    between atoms: C_2  and  C_3 
REMARK    2  A    between atoms: C_2  and  N_6 
REMARK    3  A    between atoms: C_3  and  O_5 
REMARK       I    between atoms: N_6  and  C_7 
REMARK    4  A    between atoms: C_7  and  C_9 
REMARK    5  A    between atoms: C_9  and  C_10 
REMARK    6  A    between atoms: C_9  and  N_15 
REMARK    7  A    between atoms: C_10  and  C_11 
REMARK    8  A    between atoms: C_11  and  C_12 
REMARK    9  A    between atoms: C_12  and  O_14 
REMARK       I    between atoms: N_15  and  C_16 
REMARK   10  A    between atoms: C_16  and  C_18 
REMARK   11  A    between atoms: C_18  and  C_19 
REMARK   12  A    between atoms: C_19  and  C_20 
REMARK   13  A    between atoms: C_20  and  C_21 
REMARK   14  A    between atoms: C_22  and  C_21 
ROOT
HETATM    1  C   UNK N   1      20.124  16.262   6.059  0.00  0.00     0.177 C 
ENDROOT
BRANCH   1   2
HETATM    2  C   UNK N   1      19.087  15.945   5.013  0.00  0.00     0.241 C 
HETATM    3  N   UNK N   1      19.066  16.605   3.827  0.00  0.00    -0.345 N 
HETATM    4  H   UNK N   1      18.344  16.393   3.192  0.00  0.00     0.163 HD
HETATM    5  O   UNK N   1      18.240  15.092   5.233  0.00  0.00    -0.271 OA
BRANCH   3   6
HETATM    6  C   UNK N   1      20.044  17.603   3.443  0.00  0.00     0.178 C 
HETATM    7  C   UNK N   1      21.049  16.975   2.496  0.00  0.00     0.043 C 
BRANCH   6   8
HETATM    8  C   UNK N   1      19.406  18.797   2.793  0.00  0.00     0.163 C 
HETATM    9  O   UNK N   1      20.005  19.858   2.719  0.00  0.00    -0.648 OA
BRANCH   8  10
HETATM   10  O   UNK N   1      18.167  18.690   2.280  0.00  0.00    -0.775 OA
HETATM   11  H   UNK N   1      17.359  18.361   2.621  0.00  0.00     0.167 HD
ENDBRANCH   8  10
ENDBRANCH   6   8
ENDBRANCH   3   6
ENDBRANCH   1   2
BRANCH   1  12
HETATM   12  C   UNK N   1      19.566  16.042   7.466  0.00  0.00     0.045 C 
BRANCH  12  13
HETATM   13  C   UNK N   1      20.245  16.923   8.504  0.00  0.00     0.112 C 
BRANCH  13  14
HETATM   14  C   UNK N   1      19.305  17.922   9.093  0.00  0.00     0.139 C 
HETATM   15  O   UNK N   1      18.125  17.644   9.216  0.00  0.00    -0.650 OA
BRANCH  14  16
HETATM   16  O   UNK N   1      19.763  19.116   9.517  0.00  0.00    -0.776 OA
HETATM   17  H   UNK N   1      20.643  19.354   9.729  0.00  0.00     0.167 HD
ENDBRANCH  14  16
ENDBRANCH  13  14
ENDBRANCH  12  13
ENDBRANCH   1  12
BRANCH   1  18
HETATM   18  N   UNK N   1      21.365  15.546   5.823  0.00  0.00    -0.348 N 
HETATM   19  C   UNK N   1      22.587  16.133   5.791  0.00  0.00     0.218 C 
HETATM   20  O   UNK N   1      22.699  17.346   5.896  0.00  0.00    -0.274 OA
HETATM   21  H   UNK N   1      21.315  14.573   5.680  0.00  0.00     0.163 HD
BRANCH  19  22
HETATM   22  C   UNK N   1      23.798  15.273   5.600  0.00  0.00     0.103 C 
BRANCH  22  23
HETATM   23  C   UNK N   1      23.413  13.860   5.208  0.00  0.00     0.009 C 
BRANCH  23  24
HETATM   24  C   UNK N   1      24.258  12.879   5.989  0.00  0.00     0.002 C 
BRANCH  24  25
HETATM   25  C   UNK N   1      24.533  13.376   7.405  0.00  0.00     0.016 C 
BRANCH  25  26
HETATM   26  C   UNK N   1      23.672  12.710   8.473  0.00  0.00     0.059 C 
HETATM   27  C   UNK N   1      22.416  13.543   8.678  0.00  0.00     0.027 C 
HETATM   28  C   UNK N   1      21.916  13.388  10.111  0.00  0.00     0.087 C 
HETATM   29  S   UNK N   1      22.672  11.914  10.849  0.00  0.00    -0.097 SA
HETATM   30  S   UNK N   1      24.521  12.580  10.071  0.00  0.00    -0.093 SA
ENDBRANCH  25  26
ENDBRANCH  24  25
ENDBRANCH  23  24
ENDBRANCH  22  23
ENDBRANCH  19  22
ENDBRANCH   1  18
TORSDOF 14
ENDMDL
MODEL 7
REMARK VINA RESULT:      -5.5      6.170      8.517
REMARK  14 active torsions:
REMARK  status: ('A' for Active; 'I' for Inactive)
REMARK    1  A    between atoms: C_2  and  C_3 
REMARK    2  A    between atoms: C_2  and  N_6 
REMARK    3  A    between atoms: C_3  and  O_5 
REMARK       I    between atoms: N_6  and  C_7 
REMARK    4  A    between atoms: C_7  and  C_9 
REMARK    5  A    between atoms: C_9  and  C_10 
REMARK    6  A    between atoms: C_9  and  N_15 
REMARK    7  A    between atoms: C_10  and  C_11 
REMARK    8  A    between atoms: C_11  and  C_12 
REMARK    9  A    between atoms: C_12  and  O_14 
REMARK       I    between atoms: N_15  and  C_16 
REMARK   10  A    between atoms: C_16  and  C_18 
REMARK   11  A    between atoms: C_18  and  C_19 
REMARK   12  A    between atoms: C_19  and  C_20 
REMARK   13  A    between atoms: C_20  and  C_21 
REMARK   14  A    between atoms: C_22  and  C_21 
ROOT
HETATM    1  C   UNK N   1      21.825  18.315   3.485  0.00  0.00     0.177 C 
ENDROOT
BRANCH   1   2
HETATM    2  C   UNK N   1      21.135  17.046   3.911  0.00  0.00     0.241 C 
HETATM    3  N   UNK N   1      20.884  16.054   3.020  0.00  0.00    -0.345 N 
HETATM    4  H   UNK N   1      20.393  15.260   3.334  0.00  0.00     0.163 HD
HETATM    5  O   UNK N   1      20.782  16.904   5.073  0.00  0.00    -0.271 OA
BRANCH   3   6
HETATM    6  C   UNK N   1      21.296  16.096   1.630  0.00  0.00     0.178 C 
HETATM    7  C   UNK N   1      21.896  14.756   1.249  0.00  0.00     0.043 C 
BRANCH   6   8
HETATM    8  C   UNK N   1      20.154  16.424   0.712  0.00  0.00     0.163 C 
HETATM    9  O   UNK N   1      20.289  17.248  -0.178  0.00  0.00    -0.648 OA
BRANCH   8  10
HETATM   10  O   UNK N   1      18.974  15.795   0.870  0.00  0.00    -0.775 OA
HETATM   11  H   UNK N   1      18.675  14.933   0.656  0.00  0.00     0.167 HD
ENDBRANCH   8  10
ENDBRANCH   6   8
ENDBRANCH   3   6
ENDBRANCH   1   2
BRANCH   1  12
HETATM   12  C   UNK N   1      20.894  19.520   3.637  0.00  0.00     0.045 C 
BRANCH  12  13
HETATM   13  C   UNK N   1      19.994  19.714   2.425  0.00  0.00     0.112 C 
BRANCH  13  14
HETATM   14  C   UNK N   1      20.667  20.495   1.347  0.00  0.00     0.139 C 
HETATM   15  O   UNK N   1      21.230  21.542   1.618  0.00  0.00    -0.650 OA
BRANCH  14  16
HETATM   16  O   UNK N   1      20.682  20.032   0.081  0.00  0.00    -0.776 OA
HETATM   17  H   UNK N   1      20.983  19.201  -0.225  0.00  0.00     0.167 HD
ENDBRANCH  14  16
ENDBRANCH  13  14
ENDBRANCH  12  13
ENDBRANCH   1  12
BRANCH   1  18
HETATM   18  N   UNK N   1      23.096  18.494   4.165  0.00  0.00    -0.348 N 
HETATM   19  C   UNK N   1      24.026  19.415   3.808  0.00  0.00     0.218 C 
HETATM   20  O   UNK N   1      23.861  20.117   2.821  0.00  0.00    -0.274 OA
HETATM   21  H   UNK N   1      23.294  17.911   4.933  0.00  0.00     0.163 HD
BRANCH  19  22
HETATM   22  C   UNK N   1      25.272  19.540   4.630  0.00  0.00     0.103 C 
BRANCH  22  23
HETATM   23  C   UNK N   1      26.351  20.296   3.880  0.00  0.00     0.009 C 
BRANCH  23  24
HETATM   24  C   UNK N   1      27.704  19.919   4.440  0.00  0.00     0.002 C 
BRANCH  24  25
HETATM   25  C   UNK N   1      27.937  18.413   4.381  0.00  0.00     0.016 C 
BRANCH  25  26
HETATM   26  C   UNK N   1      29.116  17.935   5.222  0.00  0.00     0.059 C 
HETATM   27  C   UNK N   1      29.638  16.631   4.637  0.00  0.00     0.027 C 
HETATM   28  C   UNK N   1      30.255  15.776   5.738  0.00  0.00     0.087 C 
HETATM   29  S   UNK N   1      30.598  16.820   7.181  0.00  0.00    -0.097 SA
HETATM   30  S   UNK N   1      28.658  17.625   6.950  0.00  0.00    -0.093 SA
ENDBRANCH  25  26
ENDBRANCH  24  25
ENDBRANCH  23  24
ENDBRANCH  22  23
ENDBRANCH  19  22
ENDBRANCH   1  18
TORSDOF 14
ENDMDL
MODEL 8
REMARK VINA RESULT:      -5.4     11.914     14.048
REMARK  14 active torsions:
REMARK  status: ('A' for Active; 'I' for Inactive)
REMARK    1  A    between atoms: C_2  and  C_3 
REMARK    2  A    between atoms: C_2  and  N_6 
REMARK    3  A    between atoms: C_3  and  O_5 
REMARK       I    between atoms: N_6  and  C_7 
REMARK    4  A    between atoms: C_7  and  C_9 
REMARK    5  A    between atoms: C_9  and  C_10 
REMARK    6  A    between atoms: C_9  and  N_15 
REMARK    7  A    between atoms: C_10  and  C_11 
REMARK    8  A    between atoms: C_11  and  C_12 
REMARK    9  A    between atoms: C_12  and  O_14 
REMARK       I    between atoms: N_15  and  C_16 
REMARK   10  A    between atoms: C_16  and  C_18 
REMARK   11  A    between atoms: C_18  and  C_19 
REMARK   12  A    between atoms: C_19  and  C_20 
REMARK   13  A    between atoms: C_20  and  C_21 
REMARK   14  A    between atoms: C_22  and  C_21 
ROOT
HETATM    1  C   UNK N   1      28.303  24.579  -4.435  0.00  0.00     0.177 C 
ENDROOT
BRANCH   1   2
HETATM    2  C   UNK N   1      27.131  24.726  -3.501  0.00  0.00     0.241 C 
HETATM    3  N   UNK N   1      26.218  25.714  -3.675  0.00  0.00    -0.345 N 
HETATM    4  H   UNK N   1      25.492  25.797  -3.015  0.00  0.00     0.163 HD
HETATM    5  O   UNK N   1      27.000  23.956  -2.561  0.00  0.00    -0.271 OA
BRANCH   3   6
HETATM    6  C   UNK N   1      26.250  26.656  -4.778  0.00  0.00     0.178 C 
HETATM    7  C   UNK N   1      25.148  26.308  -5.761  0.00  0.00     0.043 C 
BRANCH   6   8
HETATM    8  C   UNK N   1      26.091  28.075  -4.313  0.00  0.00     0.163 C 
HETATM    9  O   UNK N   1      26.585  28.995  -4.945  0.00  0.00    -0.648 OA
BRANCH   8  10
HETATM   10  O   UNK N   1      25.388  28.331  -3.194  0.00  0.00    -0.775 OA
HETATM   11  H   UNK N   1      24.471  28.338  -3.002  0.00  0.00     0.167 HD
ENDBRANCH   8  10
ENDBRANCH   6   8
ENDBRANCH   3   6
ENDBRANCH   1   2
BRANCH   1  12
HETATM   12  C   UNK N   1      29.618  24.520  -3.656  0.00  0.00     0.045 C 
BRANCH  12  13
HETATM   13  C   UNK N   1      30.279  23.152  -3.735  0.00  0.00     0.112 C 
BRANCH  13  14
HETATM   14  C   UNK N   1      30.802  22.703  -2.412  0.00  0.00     0.139 C 
HETATM   15  O   UNK N   1      30.256  23.076  -1.387  0.00  0.00    -0.650 OA
BRANCH  14  16
HETATM   16  O   UNK N   1      31.854  21.865  -2.346  0.00  0.00    -0.776 OA
HETATM   17  H   UNK N   1      32.760  22.063  -2.477  0.00  0.00     0.167 HD
ENDBRANCH  14  16
ENDBRANCH  13  14
ENDBRANCH  12  13
ENDBRANCH   1  12
BRANCH   1  18
HETATM   18  N   UNK N   1      28.133  23.459  -5.343  0.00  0.00    -0.348 N 
HETATM   19  C   UNK N   1      27.991  23.585  -6.687  0.00  0.00     0.218 C 
HETATM   20  O   UNK N   1      27.930  24.690  -7.207  0.00  0.00    -0.274 OA
HETATM   21  H   UNK N   1      28.121  22.553  -4.961  0.00  0.00     0.163 HD
BRANCH  19  22
HETATM   22  C   UNK N   1      27.884  22.346  -7.522  0.00  0.00     0.103 C 
BRANCH  22  23
HETATM   23  C   UNK N   1      28.917  21.316  -7.112  0.00  0.00     0.009 C 
BRANCH  23  24
HETATM   24  C   UNK N   1      28.696  20.046  -7.905  0.00  0.00     0.002 C 
BRANCH  24  25
HETATM   25  C   UNK N   1      29.860  19.073  -7.741  0.00  0.00     0.016 C 
BRANCH  25  26
HETATM   26  C   UNK N   1      30.792  19.015  -8.948  0.00  0.00     0.059 C 
HETATM   27  C   UNK N   1      30.531  17.723  -9.706  0.00  0.00     0.027 C 
HETATM   28  C   UNK N   1      31.803  17.266 -10.411  0.00  0.00     0.087 C 
HETATM   29  S   UNK N   1      32.960  18.659 -10.512  0.00  0.00    -0.097 SA
HETATM   30  S   UNK N   1      32.543  19.039  -8.476  0.00  0.00    -0.093 SA
ENDBRANCH  25  26
ENDBRANCH  24  25
ENDBRANCH  23  24
ENDBRANCH  22  23
ENDBRANCH  19  22
ENDBRANCH   1  18
TORSDOF 14
ENDMDL
MODEL 9
REMARK VINA RESULT:      -5.4      7.069      9.336
REMARK  14 active torsions:
REMARK  status: ('A' for Active; 'I' for Inactive)
REMARK    1  A    between atoms: C_2  and  C_3 
REMARK    2  A    between atoms: C_2  and  N_6 
REMARK    3  A    between atoms: C_3  and  O_5 
REMARK       I    between atoms: N_6  and  C_7 
REMARK    4  A    between atoms: C_7  and  C_9 
REMARK    5  A    between atoms: C_9  and  C_10 
REMARK    6  A    between atoms: C_9  and  N_15 
REMARK    7  A    between atoms: C_10  and  C_11 
REMARK    8  A    between atoms: C_11  and  C_12 
REMARK    9  A    between atoms: C_12  and  O_14 
REMARK       I    between atoms: N_15  and  C_16 
REMARK   10  A    between atoms: C_16  and  C_18 
REMARK   11  A    between atoms: C_18  and  C_19 
REMARK   12  A    between atoms: C_19  and  C_20 
REMARK   13  A    between atoms: C_20  and  C_21 
REMARK   14  A    between atoms: C_22  and  C_21 
ROOT
HETATM    1  C   UNK N   1      20.939  17.623   3.682  0.00  0.00     0.177 C 
ENDROOT
BRANCH   1   2
HETATM    2  C   UNK N   1      19.730  16.724   3.666  0.00  0.00     0.241 C 
HETATM    3  N   UNK N   1      19.443  15.959   2.582  0.00  0.00    -0.345 N 
HETATM    4  H   UNK N   1      18.620  15.419   2.601  0.00  0.00     0.163 HD
HETATM    5  O   UNK N   1      18.985  16.687   4.634  0.00  0.00    -0.271 OA
BRANCH   3   6
HETATM    6  C   UNK N   1      20.278  15.891   1.399  0.00  0.00     0.178 C 
HETATM    7  C   UNK N   1      20.461  14.438   1.002  0.00  0.00     0.043 C 
BRANCH   6   8
HETATM    8  C   UNK N   1      19.696  16.666   0.252  0.00  0.00     0.163 C 
HETATM    9  O   UNK N   1      20.391  17.430  -0.399  0.00  0.00    -0.648 OA
BRANCH   8  10
HETATM   10  O   UNK N   1      18.398  16.505  -0.065  0.00  0.00    -0.775 OA
HETATM   11  H   UNK N   1      17.874  15.753  -0.260  0.00  0.00     0.167 HD
ENDBRANCH   8  10
ENDBRANCH   6   8
ENDBRANCH   3   6
ENDBRANCH   1   2
BRANCH   1  12
HETATM   12  C   UNK N   1      20.524  19.095   3.696  0.00  0.00     0.045 C 
BRANCH  12  13
HETATM   13  C   UNK N   1      20.131  19.601   2.316  0.00  0.00     0.112 C 
BRANCH  13  14
HETATM   14  C   UNK N   1      21.094  20.613   1.794  0.00  0.00     0.139 C 
HETATM   15  O   UNK N   1      21.391  20.613   0.611  0.00  0.00    -0.650 OA
BRANCH  14  16
HETATM   16  O   UNK N   1      21.612  21.545   2.617  0.00  0.00    -0.776 OA
HETATM   17  H   UNK N   1      21.174  22.031   3.287  0.00  0.00     0.167 HD
ENDBRANCH  14  16
ENDBRANCH  13  14
ENDBRANCH  12  13
ENDBRANCH   1  12
BRANCH   1  18
HETATM   18  N   UNK N   1      21.851  17.281   4.760  0.00  0.00    -0.348 N 
HETATM   19  C   UNK N   1      22.644  16.180   4.765  0.00  0.00     0.218 C 
HETATM   20  O   UNK N   1      22.575  15.359   3.861  0.00  0.00    -0.274 OA
HETATM   21  H   UNK N   1      21.898  17.888   5.533  0.00  0.00     0.163 HD
BRANCH  19  22
HETATM   22  C   UNK N   1      23.587  15.973   5.909  0.00  0.00     0.103 C 
BRANCH  22  23
HETATM   23  C   UNK N   1      25.025  15.925   5.434  0.00  0.00     0.009 C 
BRANCH  23  24
HETATM   24  C   UNK N   1      25.435  17.297   4.945  0.00  0.00     0.002 C 
BRANCH  24  25
HETATM   25  C   UNK N   1      26.157  17.222   3.604  0.00  0.00     0.016 C 
BRANCH  25  26
HETATM   26  C   UNK N   1      27.285  16.195   3.565  0.00  0.00     0.059 C 
HETATM   27  C   UNK N   1      28.612  16.930   3.452  0.00  0.00     0.027 C 
HETATM   28  C   UNK N   1      29.627  16.063   2.715  0.00  0.00     0.087 C 
HETATM   29  S   UNK N   1      29.053  14.343   2.717  0.00  0.00    -0.097 SA
HETATM   30  S   UNK N   1      27.151  15.068   2.150  0.00  0.00    -0.093 SA
ENDBRANCH  25  26
ENDBRANCH  24  25
ENDBRANCH  23  24
ENDBRANCH  22  23
ENDBRANCH  19  22
ENDBRANCH   1  18
TORSDOF 14
ENDMDL
