MODEL 1
REMARK VINA RESULT:     -12.6      0.000      0.000
REMARK  2 active torsions:
REMARK  status: ('A' for Active; 'I' for Inactive)
REMARK    1  A    between atoms: C_10  and  C_5 
REMARK    2  A    between atoms: C_8  and  N_13 
ROOT
HETATM    1  C   UNK N   1      21.311  12.388  10.915  0.00  0.00     0.009 A 
HETATM    2  C   UNK N   1      22.008  12.014  11.146  0.00  0.00     0.020 A 
HETATM    3  C   UNK N   1      22.737  12.305  10.889  0.00  0.00     0.065 A 
HETATM    4  C   UNK N   1      22.768  12.969  10.401  0.00  0.00     0.089 A 
HETATM    5  C   UNK N   1      22.070  13.343  10.171  0.00  0.00    -0.005 A 
HETATM    6  C   UNK N   1      21.444  13.094  10.391  0.00  0.00    -0.046 A 
HETATM    7  C   UNK N   1      20.554  13.272  10.316  0.00  0.00     0.067 A 
HETATM    8  C   UNK N   1      20.168  13.872   9.901  0.00  0.00     0.118 A 
HETATM    9  C   UNK N   1      21.265  13.705   9.956  0.00  0.00     0.091 A 
HETATM   10  C   UNK N   1      22.043  13.904   9.763  0.00  0.00     0.031 A 
HETATM   11  C   UNK N   1      21.926  14.573   9.281  0.00  0.00     0.037 A 
HETATM   12  C   UNK N   1      21.139  14.792   9.169  0.00  0.00     0.118 A 
HETATM   13  N   UNK N   1      20.411  14.502   9.426  0.00  0.00    -0.405 N 
HETATM   14  C   UNK N   1      19.776  14.945   9.141  0.00  0.00     0.122 A 
HETATM   15  C   UNK N   1      19.914  15.598   8.655  0.00  0.00     0.003 A 
HETATM   16  C   UNK N   1      20.439  16.095   8.259  0.00  0.00     0.007 A 
HETATM   17  C   UNK N   1      19.628  16.230   8.210  0.00  0.00     0.007 A 
HETATM   18  C   UNK N   1      22.669  13.452  10.054  0.00  0.00     0.096 A 
HETATM   19  C   UNK N   1      22.517  12.802  10.539  0.00  0.00     0.128 A 
HETATM   20  O   UNK N   1      23.142  12.350  10.831  0.00  0.00    -0.298 OA
HETATM   21  C   UNK N   1      21.740  12.604  10.732  0.00  0.00     0.081 A 
HETATM   22  C   UNK N   1      21.114  13.055  10.440  0.00  0.00     0.048 A 
HETATM   23  O   UNK N   1      21.189  14.370   9.474  0.00  0.00    -0.387 OA
HETATM   24  O   UNK N   1      23.496  13.259  10.145  0.00  0.00    -0.359 OA
HETATM   25  C   UNK N   1      23.434  11.930  11.120  0.00  0.00     0.252 A 
HETATM   26  O   UNK N   1      23.404  11.265  11.608  0.00  0.00    -0.268 OA
HETATM   27  N   UNK N   1      24.164  12.219  10.864  0.00  0.00    -0.366 N 
HETATM   28  H   UNK N   1      20.307  14.723   9.271  0.00  0.00     0.210 HD
HETATM   29  H   UNK N   1      23.530  14.014   9.591  0.00  0.00     0.217 HD
HETATM   30  H   UNK N   1      24.200  13.013  10.281  0.00  0.00     0.159 HD
HETATM   31  H   UNK N   1      24.996  11.773  11.139  0.00  0.00     0.159 HD
ENDROOT
TORSDOF 2
ENDMDL
MODEL 2
REMARK VINA RESULT:     -12.4      2.347      2.921
REMARK  2 active torsions:
REMARK  status: ('A' for Active; 'I' for Inactive)
REMARK    1  A    between atoms: C_10  and  C_5 
REMARK    2  A    between atoms: C_8  and  N_13 
ROOT
HETATM    1  C   UNK N   1      24.381  12.157  11.029  0.00  0.00     0.009 A 
HETATM    2  C   UNK N   1      24.230  12.063  11.834  0.00  0.00     0.020 A 
HETATM    3  C   UNK N   1      23.456  11.946  12.098  0.00  0.00     0.065 A 
HETATM    4  C   UNK N   1      22.834  11.924  11.556  0.00  0.00     0.089 A 
HETATM    5  C   UNK N   1      22.986  12.018  10.751  0.00  0.00    -0.005 A 
HETATM    6  C   UNK N   1      23.650  12.118  10.524  0.00  0.00    -0.046 A 
HETATM    7  C   UNK N   1      24.113  12.247   9.751  0.00  0.00     0.067 A 
HETATM    8  C   UNK N   1      23.841  12.288   8.972  0.00  0.00     0.118 A 
HETATM    9  C   UNK N   1      23.223  12.129   9.882  0.00  0.00     0.091 A 
HETATM   10  C   UNK N   1      22.498  12.007  10.257  0.00  0.00     0.031 A 
HETATM   11  C   UNK N   1      21.975  12.007   9.609  0.00  0.00     0.037 A 
HETATM   12  C   UNK N   1      22.329  12.119   8.872  0.00  0.00     0.118 A 
HETATM   13  N   UNK N   1      23.102  12.235   8.609  0.00  0.00    -0.405 N 
HETATM   14  C   UNK N   1      23.147  12.318   7.789  0.00  0.00     0.122 A 
HETATM   15  C   UNK N   1      22.461  12.280   7.333  0.00  0.00     0.003 A 
HETATM   16  C   UNK N   1      21.643  12.188   7.279  0.00  0.00     0.007 A 
HETATM   17  C   UNK N   1      22.090  12.306   6.597  0.00  0.00     0.007 A 
HETATM   18  C   UNK N   1      22.467  11.926  11.078  0.00  0.00     0.096 A 
HETATM   19  C   UNK N   1      23.161  11.966  11.522  0.00  0.00     0.128 A 
HETATM   20  O   UNK N   1      23.130  11.885  12.342  0.00  0.00    -0.298 OA
HETATM   21  C   UNK N   1      23.885  12.087  11.146  0.00  0.00     0.081 A 
HETATM   22  C   UNK N   1      23.916  12.169  10.326  0.00  0.00     0.048 A 
HETATM   23  O   UNK N   1      22.676  12.122   9.264  0.00  0.00    -0.387 OA
HETATM   24  O   UNK N   1      22.062  11.807  11.821  0.00  0.00    -0.359 OA
HETATM   25  C   UNK N   1      23.306  11.852  12.903  0.00  0.00     0.252 A 
HETATM   26  O   UNK N   1      23.928  11.875  13.445  0.00  0.00    -0.268 OA
HETATM   27  N   UNK N   1      22.533  11.735  13.168  0.00  0.00    -0.366 N 
HETATM   28  H   UNK N   1      22.975  12.245   8.349  0.00  0.00     0.210 HD
HETATM   29  H   UNK N   1      21.355  11.782  11.205  0.00  0.00     0.217 HD
HETATM   30  H   UNK N   1      21.790  11.709  12.521  0.00  0.00     0.159 HD
HETATM   31  H   UNK N   1      22.353  11.623  14.129  0.00  0.00     0.159 HD
ENDROOT
TORSDOF 2
ENDMDL
MODEL 3
REMARK VINA RESULT:     -11.9      1.804      3.038
REMARK  2 active torsions:
REMARK  status: ('A' for Active; 'I' for Inactive)
REMARK    1  A    between atoms: C_10  and  C_5 
REMARK    2  A    between atoms: C_8  and  N_13 
ROOT
HETATM    1  C   UNK N   1      22.643  12.077  11.335  0.00  0.00     0.009 A 
HETATM    2  C   UNK N   1      21.865  12.016  11.601  0.00  0.00     0.020 A 
HETATM    3  C   UNK N   1      21.250  12.337  11.154  0.00  0.00     0.065 A 
HETATM    4  C   UNK N   1      21.413  12.720  10.441  0.00  0.00     0.089 A 
HETATM    5  C   UNK N   1      22.192  12.781  10.176  0.00  0.00    -0.005 A 
HETATM    6  C   UNK N   1      22.720  12.505  10.560  0.00  0.00    -0.046 A 
HETATM    7  C   UNK N   1      23.626  12.413  10.539  0.00  0.00     0.067 A 
HETATM    8  C   UNK N   1      24.171  12.670   9.974  0.00  0.00     0.118 A 
HETATM    9  C   UNK N   1      23.069  12.812   9.944  0.00  0.00     0.091 A 
HETATM   10  C   UNK N   1      22.380  13.092   9.585  0.00  0.00     0.031 A 
HETATM   11  C   UNK N   1      22.687  13.446   8.896  0.00  0.00     0.037 A 
HETATM   12  C   UNK N   1      23.506  13.400   8.812  0.00  0.00     0.118 A 
HETATM   13  N   UNK N   1      24.120  13.078   9.259  0.00  0.00    -0.405 N 
HETATM   14  C   UNK N   1      24.859  13.192   8.908  0.00  0.00     0.122 A 
HETATM   15  C   UNK N   1      24.916  13.591   8.188  0.00  0.00     0.003 A 
HETATM   16  C   UNK N   1      24.556  13.986   7.560  0.00  0.00     0.007 A 
HETATM   17  C   UNK N   1      25.374  13.887   7.570  0.00  0.00     0.007 A 
HETATM   18  C   UNK N   1      21.648  12.972   9.947  0.00  0.00     0.096 A 
HETATM   19  C   UNK N   1      21.606  12.571  10.666  0.00  0.00     0.128 A 
HETATM   20  O   UNK N   1      20.874  12.451  11.028  0.00  0.00    -0.298 OA
HETATM   21  C   UNK N   1      22.294  12.291  11.025  0.00  0.00     0.081 A 
HETATM   22  C   UNK N   1      23.026  12.412  10.663  0.00  0.00     0.048 A 
HETATM   23  O   UNK N   1      23.336  13.172   9.251  0.00  0.00    -0.387 OA
HETATM   24  O   UNK N   1      20.798  13.041   9.996  0.00  0.00    -0.359 OA
HETATM   25  C   UNK N   1      20.471  12.276  11.420  0.00  0.00     0.252 A 
HETATM   26  O   UNK N   1      20.308  11.893  12.132  0.00  0.00    -0.268 OA
HETATM   27  N   UNK N   1      19.856  12.597  10.974  0.00  0.00    -0.366 N 
HETATM   28  H   UNK N   1      24.284  13.181   9.044  0.00  0.00     0.210 HD
HETATM   29  H   UNK N   1      20.985  13.476   9.186  0.00  0.00     0.217 HD
HETATM   30  H   UNK N   1      20.051  13.054  10.123  0.00  0.00     0.159 HD
HETATM   31  H   UNK N   1      18.927  12.524  11.291  0.00  0.00     0.159 HD
ENDROOT
TORSDOF 2
ENDMDL
MODEL 4
REMARK VINA RESULT:     -11.9     13.563     15.120
REMARK  2 active torsions:
REMARK  status: ('A' for Active; 'I' for Inactive)
REMARK    1  A    between atoms: C_10  and  C_5 
REMARK    2  A    between atoms: C_8  and  N_13 
ROOT
HETATM    1  C   UNK N   1      35.333  11.492  18.109  0.00  0.00     0.009 A 
HETATM    2  C   UNK N   1      35.413  12.142  18.609  0.00  0.00     0.020 A 
HETATM    3  C   UNK N   1      35.272  12.904  18.322  0.00  0.00     0.065 A 
HETATM    4  C   UNK N   1      35.052  13.013  17.534  0.00  0.00     0.089 A 
HETATM    5  C   UNK N   1      34.972  12.362  17.035  0.00  0.00    -0.005 A 
HETATM    6  C   UNK N   1      35.093  11.709  17.281  0.00  0.00    -0.046 A 
HETATM    7  C   UNK N   1      35.090  10.843  16.999  0.00  0.00     0.067 A 
HETATM    8  C   UNK N   1      34.916  10.530  16.255  0.00  0.00     0.118 A 
HETATM    9  C   UNK N   1      34.903  11.604  16.541  0.00  0.00     0.091 A 
HETATM   10  C   UNK N   1      34.789  12.403  16.366  0.00  0.00     0.031 A 
HETATM   11  C   UNK N   1      34.576  12.366  15.562  0.00  0.00     0.037 A 
HETATM   12  C   UNK N   1      34.553  11.607  15.239  0.00  0.00     0.118 A 
HETATM   13  N   UNK N   1      34.694  10.847  15.526  0.00  0.00    -0.405 N 
HETATM   14  C   UNK N   1      34.588  10.267  14.949  0.00  0.00     0.122 A 
HETATM   15  C   UNK N   1      34.365  10.482  14.184  0.00  0.00     0.003 A 
HETATM   16  C   UNK N   1      34.168  11.065  13.635  0.00  0.00     0.007 A 
HETATM   17  C   UNK N   1      34.174  10.272  13.410  0.00  0.00     0.007 A 
HETATM   18  C   UNK N   1      34.899  12.973  16.953  0.00  0.00     0.096 A 
HETATM   19  C   UNK N   1      35.122  12.743  17.713  0.00  0.00     0.128 A 
HETATM   20  O   UNK N   1      35.232  13.313  18.299  0.00  0.00    -0.298 OA
HETATM   21  C   UNK N   1      35.236  11.945  17.887  0.00  0.00     0.081 A 
HETATM   22  C   UNK N   1      35.126  11.375  17.301  0.00  0.00     0.048 A 
HETATM   23  O   UNK N   1      34.689  11.607  15.744  0.00  0.00    -0.387 OA
HETATM   24  O   UNK N   1      34.911  13.774  17.248  0.00  0.00    -0.359 OA
HETATM   25  C   UNK N   1      35.352  13.554  18.823  0.00  0.00     0.252 A 
HETATM   26  O   UNK N   1      35.572  13.444  19.610  0.00  0.00    -0.268 OA
HETATM   27  N   UNK N   1      35.211  14.316  18.536  0.00  0.00    -0.366 N 
HETATM   28  H   UNK N   1      34.628  10.770  15.255  0.00  0.00     0.210 HD
HETATM   29  H   UNK N   1      34.660  13.898  16.353  0.00  0.00     0.217 HD
HETATM   30  H   UNK N   1      34.948  14.446  17.596  0.00  0.00     0.159 HD
HETATM   31  H   UNK N   1      35.306  15.092  19.133  0.00  0.00     0.159 HD
ENDROOT
TORSDOF 2
ENDMDL
MODEL 5
REMARK VINA RESULT:     -11.8     13.656     15.306
REMARK  2 active torsions:
REMARK  status: ('A' for Active; 'I' for Inactive)
REMARK    1  A    between atoms: C_10  and  C_5 
REMARK    2  A    between atoms: C_8  and  N_13 
ROOT
HETATM    1  C   UNK N   1      35.024  13.394  17.712  0.00  0.00     0.009 A 
HETATM    2  C   UNK N   1      35.223  13.311  18.508  0.00  0.00     0.020 A 
HETATM    3  C   UNK N   1      35.355  12.561  18.825  0.00  0.00     0.065 A 
HETATM    4  C   UNK N   1      35.289  11.893  18.345  0.00  0.00     0.089 A 
HETATM    5  C   UNK N   1      35.090  11.976  17.549  0.00  0.00    -0.005 A 
HETATM    6  C   UNK N   1      34.976  12.620  17.277  0.00  0.00    -0.046 A 
HETATM    7  C   UNK N   1      34.755  13.017  16.488  0.00  0.00     0.067 A 
HETATM    8  C   UNK N   1      34.602  12.679  15.750  0.00  0.00     0.118 A 
HETATM    9  C   UNK N   1      34.869  12.139  16.684  0.00  0.00     0.091 A 
HETATM   10  C   UNK N   1      35.023  11.446  17.106  0.00  0.00     0.031 A 
HETATM   11  C   UNK N   1      34.923  10.868  16.514  0.00  0.00     0.037 A 
HETATM   12  C   UNK N   1      34.721  11.159  15.769  0.00  0.00     0.118 A 
HETATM   13  N   UNK N   1      34.588  11.909  15.453  0.00  0.00    -0.405 N 
HETATM   14  C   UNK N   1      34.396  11.884  14.651  0.00  0.00     0.122 A 
HETATM   15  C   UNK N   1      34.355  11.159  14.259  0.00  0.00     0.003 A 
HETATM   16  C   UNK N   1      34.419  10.337  14.270  0.00  0.00     0.007 A 
HETATM   17  C   UNK N   1      34.221  10.726  13.571  0.00  0.00     0.007 A 
HETATM   18  C   UNK N   1      35.214  11.485  17.907  0.00  0.00     0.096 A 
HETATM   19  C   UNK N   1      35.251  12.217  18.286  0.00  0.00     0.128 A 
HETATM   20  O   UNK N   1      35.442  12.256  19.088  0.00  0.00    -0.298 OA
HETATM   21  C   UNK N   1      35.097  12.909  17.865  0.00  0.00     0.081 A 
HETATM   22  C   UNK N   1      34.906  12.869  17.063  0.00  0.00     0.048 A 
HETATM   23  O   UNK N   1      34.778  11.539  16.125  0.00  0.00    -0.387 OA
HETATM   24  O   UNK N   1      35.422  11.143  18.662  0.00  0.00    -0.359 OA
HETATM   25  C   UNK N   1      35.554  12.479  19.621  0.00  0.00     0.252 A 
HETATM   26  O   UNK N   1      35.621  13.147  20.101  0.00  0.00    -0.268 OA
HETATM   27  N   UNK N   1      35.688  11.728  19.939  0.00  0.00    -0.366 N 
HETATM   28  H   UNK N   1      34.540  11.760  15.210  0.00  0.00     0.210 HD
HETATM   29  H   UNK N   1      35.347  10.384  18.117  0.00  0.00     0.217 HD
HETATM   30  H   UNK N   1      35.608  10.931  19.365  0.00  0.00     0.159 HD
HETATM   31  H   UNK N   1      35.925  11.631  20.888  0.00  0.00     0.159 HD
ENDROOT
TORSDOF 2
ENDMDL
MODEL 6
REMARK VINA RESULT:     -11.7     10.210     11.202
REMARK  2 active torsions:
REMARK  status: ('A' for Active; 'I' for Inactive)
REMARK    1  A    between atoms: C_10  and  C_5 
REMARK    2  A    between atoms: C_8  and  N_13 
ROOT
HETATM    1  C   UNK N   1      32.368  17.233   6.771  0.00  0.00     0.009 A 
HETATM    2  C   UNK N   1      33.161  17.429   6.880  0.00  0.00     0.020 A 
HETATM    3  C   UNK N   1      33.401  17.805   7.574  0.00  0.00     0.065 A 
HETATM    4  C   UNK N   1      32.848  17.985   8.159  0.00  0.00     0.089 A 
HETATM    5  C   UNK N   1      32.055  17.789   8.050  0.00  0.00    -0.005 A 
HETATM    6  C   UNK N   1      31.848  17.466   7.454  0.00  0.00    -0.046 A 
HETATM    7  C   UNK N   1      31.094  17.140   7.060  0.00  0.00     0.067 A 
HETATM    8  C   UNK N   1      30.316  17.131   7.334  0.00  0.00     0.118 A 
HETATM    9  C   UNK N   1      31.200  17.545   7.865  0.00  0.00     0.091 A 
HETATM   10  C   UNK N   1      31.552  17.919   8.511  0.00  0.00     0.031 A 
HETATM   11  C   UNK N   1      30.896  18.038   9.009  0.00  0.00     0.037 A 
HETATM   12  C   UNK N   1      30.176  17.766   8.713  0.00  0.00     0.118 A 
HETATM   13  N   UNK N   1      29.936  17.390   8.019  0.00  0.00    -0.405 N 
HETATM   14  C   UNK N   1      29.125  17.237   8.007  0.00  0.00     0.122 A 
HETATM   15  C   UNK N   1      28.654  17.459   8.648  0.00  0.00     0.003 A 
HETATM   16  C   UNK N   1      28.579  17.803   9.394  0.00  0.00     0.007 A 
HETATM   17  C   UNK N   1      27.915  17.499   9.011  0.00  0.00     0.007 A 
HETATM   18  C   UNK N   1      32.364  18.066   8.510  0.00  0.00     0.096 A 
HETATM   19  C   UNK N   1      32.823  17.839   7.863  0.00  0.00     0.128 A 
HETATM   20  O   UNK N   1      33.635  17.985   7.862  0.00  0.00    -0.298 OA
HETATM   21  C   UNK N   1      32.471  17.465   7.217  0.00  0.00     0.081 A 
HETATM   22  C   UNK N   1      31.659  17.319   7.218  0.00  0.00     0.048 A 
HETATM   23  O   UNK N   1      30.574  17.681   8.384  0.00  0.00    -0.387 OA
HETATM   24  O   UNK N   1      33.089  18.361   8.852  0.00  0.00    -0.359 OA
HETATM   25  C   UNK N   1      34.195  18.001   7.683  0.00  0.00     0.252 A 
HETATM   26  O   UNK N   1      34.748  17.821   7.098  0.00  0.00    -0.268 OA
HETATM   27  N   UNK N   1      34.437  18.377   8.377  0.00  0.00    -0.366 N 
HETATM   28  H   UNK N   1      29.675  17.402   8.144  0.00  0.00     0.210 HD
HETATM   29  H   UNK N   1      32.460  18.565   9.517  0.00  0.00     0.217 HD
HETATM   30  H   UNK N   1      33.776  18.592   9.075  0.00  0.00     0.159 HD
HETATM   31  H   UNK N   1      35.383  18.611   8.507  0.00  0.00     0.159 HD
ENDROOT
TORSDOF 2
ENDMDL
MODEL 7
REMARK VINA RESULT:     -11.6     19.349     20.335
REMARK  2 active torsions:
REMARK  status: ('A' for Active; 'I' for Inactive)
REMARK    1  A    between atoms: C_10  and  C_5 
REMARK    2  A    between atoms: C_8  and  N_13 
ROOT
HETATM    1  C   UNK N   1      25.451  27.434  -5.444  0.00  0.00     0.009 A 
HETATM    2  C   UNK N   1      25.535  27.856  -4.741  0.00  0.00     0.020 A 
HETATM    3  C   UNK N   1      25.764  27.465  -4.050  0.00  0.00     0.065 A 
HETATM    4  C   UNK N   1      25.909  26.654  -4.064  0.00  0.00     0.089 A 
HETATM    5  C   UNK N   1      25.825  26.232  -4.768  0.00  0.00    -0.005 A 
HETATM    6  C   UNK N   1      25.628  26.567  -5.360  0.00  0.00    -0.046 A 
HETATM    7  C   UNK N   1      25.458  26.393  -6.238  0.00  0.00     0.067 A 
HETATM    8  C   UNK N   1      25.493  25.680  -6.653  0.00  0.00     0.118 A 
HETATM    9  C   UNK N   1      25.713  25.830  -5.574  0.00  0.00     0.091 A 
HETATM   10  C   UNK N   1      25.935  25.549  -4.830  0.00  0.00     0.031 A 
HETATM   11  C   UNK N   1      26.047  24.739  -4.987  0.00  0.00     0.037 A 
HETATM   12  C   UNK N   1      25.909  24.511  -5.768  0.00  0.00     0.118 A 
HETATM   13  N   UNK N   1      25.680  24.901  -6.457  0.00  0.00    -0.405 N 
HETATM   14  C   UNK N   1      25.625  24.392  -7.104  0.00  0.00     0.122 A 
HETATM   15  C   UNK N   1      25.792  23.589  -7.013  0.00  0.00     0.003 A 
HETATM   16  C   UNK N   1      26.017  22.957  -6.534  0.00  0.00     0.007 A 
HETATM   17  C   UNK N   1      25.857  22.831  -7.332  0.00  0.00     0.007 A 
HETATM   18  C   UNK N   1      25.987  26.069  -4.191  0.00  0.00     0.096 A 
HETATM   19  C   UNK N   1      25.816  26.869  -4.297  0.00  0.00     0.128 A 
HETATM   20  O   UNK N   1      25.868  27.390  -3.659  0.00  0.00    -0.298 OA
HETATM   21  C   UNK N   1      25.595  27.150  -5.041  0.00  0.00     0.081 A 
HETATM   22  C   UNK N   1      25.543  26.630  -5.679  0.00  0.00     0.048 A 
HETATM   23  O   UNK N   1      25.833  25.023  -5.692  0.00  0.00    -0.387 OA
HETATM   24  O   UNK N   1      26.138  26.265  -3.374  0.00  0.00    -0.359 OA
HETATM   25  C   UNK N   1      25.849  27.888  -3.347  0.00  0.00     0.252 A 
HETATM   26  O   UNK N   1      25.704  28.700  -3.333  0.00  0.00    -0.268 OA
HETATM   27  N   UNK N   1      26.078  27.499  -2.656  0.00  0.00    -0.366 N 
HETATM   28  H   UNK N   1      25.702  24.637  -6.573  0.00  0.00     0.210 HD
HETATM   29  H   UNK N   1      26.303  25.342  -3.389  0.00  0.00     0.217 HD
HETATM   30  H   UNK N   1      26.251  26.529  -2.673  0.00  0.00     0.159 HD
HETATM   31  H   UNK N   1      26.178  28.003  -1.817  0.00  0.00     0.159 HD
ENDROOT
TORSDOF 2
ENDMDL
MODEL 8
REMARK VINA RESULT:     -11.6      1.124      3.835
REMARK  2 active torsions:
REMARK  status: ('A' for Active; 'I' for Inactive)
REMARK    1  A    between atoms: C_10  and  C_5 
REMARK    2  A    between atoms: C_8  and  N_13 
ROOT
HETATM    1  C   UNK N   1      19.618  14.471   9.705  0.00  0.00     0.009 A 
HETATM    2  C   UNK N   1      19.469  15.143   9.251  0.00  0.00     0.020 A 
HETATM    3  C   UNK N   1      20.087  15.517   8.853  0.00  0.00     0.065 A 
HETATM    4  C   UNK N   1      20.854  15.219   8.908  0.00  0.00     0.089 A 
HETATM    5  C   UNK N   1      21.003  14.547   9.362  0.00  0.00    -0.005 A 
HETATM    6  C   UNK N   1      20.472  14.225   9.704  0.00  0.00    -0.046 A 
HETATM    7  C   UNK N   1      20.322  13.511  10.250  0.00  0.00     0.067 A 
HETATM    8  C   UNK N   1      20.852  12.950  10.544  0.00  0.00     0.118 A 
HETATM    9  C   UNK N   1      21.096  13.805   9.877  0.00  0.00     0.091 A 
HETATM   10  C   UNK N   1      21.629  14.258   9.440  0.00  0.00     0.031 A 
HETATM   11  C   UNK N   1      22.343  13.854   9.582  0.00  0.00     0.037 A 
HETATM   12  C   UNK N   1      22.281  13.193  10.072  0.00  0.00     0.118 A 
HETATM   13  N   UNK N   1      21.663  12.819  10.470  0.00  0.00    -0.405 N 
HETATM   14  C   UNK N   1      21.915  12.157  10.894  0.00  0.00     0.122 A 
HETATM   15  C   UNK N   1      22.711  11.941  10.885  0.00  0.00     0.003 A 
HETATM   16  C   UNK N   1      23.484  12.072  10.629  0.00  0.00     0.007 A 
HETATM   17  C   UNK N   1      23.316  11.434  11.124  0.00  0.00     0.007 A 
HETATM   18  C   UNK N   1      21.364  14.917   9.020  0.00  0.00     0.096 A 
HETATM   19  C   UNK N   1      20.565  15.122   9.038  0.00  0.00     0.128 A 
HETATM   20  O   UNK N   1      20.300  15.781   8.618  0.00  0.00    -0.298 OA
HETATM   21  C   UNK N   1      20.032  14.670   9.475  0.00  0.00     0.081 A 
HETATM   22  C   UNK N   1      20.298  14.011   9.895  0.00  0.00     0.048 A 
HETATM   23  O   UNK N   1      21.821  13.431   9.996  0.00  0.00    -0.387 OA
HETATM   24  O   UNK N   1      21.471  15.594   8.510  0.00  0.00    -0.359 OA
HETATM   25  C   UNK N   1      19.937  16.190   8.399  0.00  0.00     0.252 A 
HETATM   26  O   UNK N   1      19.170  16.488   8.344  0.00  0.00    -0.268 OA
HETATM   27  N   UNK N   1      20.555  16.565   8.000  0.00  0.00    -0.366 N 
HETATM   28  H   UNK N   1      21.873  12.639  10.556  0.00  0.00     0.210 HD
HETATM   29  H   UNK N   1      22.343  15.255   8.573  0.00  0.00     0.217 HD
HETATM   30  H   UNK N   1      21.471  16.209   8.067  0.00  0.00     0.159 HD
HETATM   31  H   UNK N   1      20.377  17.367   7.459  0.00  0.00     0.159 HD
ENDROOT
TORSDOF 2
ENDMDL
MODEL 9
REMARK VINA RESULT:     -11.3     15.396     16.066
REMARK  2 active torsions:
REMARK  status: ('A' for Active; 'I' for Inactive)
REMARK    1  A    between atoms: C_10  and  C_5 
REMARK    2  A    between atoms: C_8  and  N_13 
ROOT
HETATM    1  C   UNK N   1      35.260  13.251  16.995  0.00  0.00     0.009 A 
HETATM    2  C   UNK N   1      35.234  13.930  17.461  0.00  0.00     0.020 A 
HETATM    3  C   UNK N   1      35.197  13.866  18.283  0.00  0.00     0.065 A 
HETATM    4  C   UNK N   1      35.186  13.121  18.639  0.00  0.00     0.089 A 
HETATM    5  C   UNK N   1      35.212  12.442  18.172  0.00  0.00    -0.005 A 
HETATM    6  C   UNK N   1      35.244  12.497  17.466  0.00  0.00    -0.046 A 
HETATM    7  C   UNK N   1      35.282  11.970  16.724  0.00  0.00     0.067 A 
HETATM    8  C   UNK N   1      35.291  11.147  16.660  0.00  0.00     0.118 A 
HETATM    9  C   UNK N   1      35.244  11.737  17.600  0.00  0.00     0.091 A 
HETATM   10  C   UNK N   1      35.206  11.795  18.423  0.00  0.00     0.031 A 
HETATM   11  C   UNK N   1      35.202  10.992  18.644  0.00  0.00     0.037 A 
HETATM   12  C   UNK N   1      35.234  10.455  18.017  0.00  0.00     0.118 A 
HETATM   13  N   UNK N   1      35.271  10.520  17.196  0.00  0.00    -0.405 N 
HETATM   14  C   UNK N   1      35.293   9.785  16.822  0.00  0.00     0.122 A 
HETATM   15  C   UNK N   1      35.278   9.093  17.272  0.00  0.00     0.003 A 
HETATM   16  C   UNK N   1      35.247   8.720  18.006  0.00  0.00     0.007 A 
HETATM   17  C   UNK N   1      35.282   8.270  17.316  0.00  0.00     0.007 A 
HETATM   18  C   UNK N   1      35.184  12.536  18.784  0.00  0.00     0.096 A 
HETATM   19  C   UNK N   1      35.200  13.220  18.322  0.00  0.00     0.128 A 
HETATM   20  O   UNK N   1      35.178  13.961  18.683  0.00  0.00    -0.298 OA
HETATM   21  C   UNK N   1      35.238  13.162  17.500  0.00  0.00     0.081 A 
HETATM   22  C   UNK N   1      35.260  12.420  17.139  0.00  0.00     0.048 A 
HETATM   23  O   UNK N   1      35.238  10.953  17.856  0.00  0.00    -0.387 OA
HETATM   24  O   UNK N   1      35.149  13.058  19.460  0.00  0.00    -0.359 OA
HETATM   25  C   UNK N   1      35.171  14.546  18.749  0.00  0.00     0.252 A 
HETATM   26  O   UNK N   1      35.182  15.290  18.393  0.00  0.00    -0.268 OA
HETATM   27  N   UNK N   1      35.134  14.482  19.571  0.00  0.00    -0.366 N 
HETATM   28  H   UNK N   1      35.273  10.231  17.208  0.00  0.00     0.210 HD
HETATM   29  H   UNK N   1      35.137  12.212  19.864  0.00  0.00     0.217 HD
HETATM   30  H   UNK N   1      35.121  13.594  19.995  0.00  0.00     0.159 HD
HETATM   31  H   UNK N   1      35.103  15.294  20.127  0.00  0.00     0.159 HD
ENDROOT
TORSDOF 2
ENDMDL
