MODEL 1
REMARK VINA RESULT:      -5.5      0.000      0.000
REMARK  4 active torsions:
REMARK  status: ('A' for Active; 'I' for Inactive)
REMARK    1  A    between atoms: C_10  and  N_3 
REMARK    2  A    between atoms: C_8  and  N_9 
REMARK    3  A    between atoms: C_13  and  C_15 
REMARK    4  A    between atoms: C_15  and  O_16 
ROOT
HETATM    1  C   UNK N   1      35.419  10.870  18.528  0.00  0.00     0.065 A 
HETATM    2  C   UNK N   1      35.415  11.556  17.317  0.00  0.00     0.101 A 
HETATM    3  N   UNK N   1      35.341  12.922  17.277  0.00  0.00    -0.293 N 
HETATM    4  C   UNK N   1      35.274  13.623  18.471  0.00  0.00     0.329 A 
HETATM    5  O   UNK N   1      35.219  14.841  18.475  0.00  0.00    -0.246 OA
HETATM    6  N   UNK N   1      35.266  12.950  19.666  0.00  0.00    -0.295 N 
ATOM      7  HN  UNK N   1      35.204  13.476  20.537  1.00  0.00     0.172 HD
HETATM    8  C   UNK N   1      35.340  11.596  19.708  0.00  0.00     0.103 A 
ENDROOT
BRANCH   3   9
HETATM    9  C   UNK N   1      35.395  13.631  15.976  0.00  0.00     0.182 C 
HETATM   10  C   UNK N   1      36.770  14.193  15.674  0.00  0.00     0.206 C 
HETATM   11  O   UNK N   1      36.797  14.614  14.343  0.00  0.00    -0.370 OA
HETATM   12  C   UNK N   1      36.232  13.582  13.571  0.00  0.00     0.208 C 
HETATM   13  S   UNK N   1      35.100  12.549  14.566  0.00  0.00    -0.107 SA
BRANCH  12  14
HETATM   14  C   UNK N   1      35.452  14.210  12.429  0.00  0.00     0.207 C 
BRANCH  14  15
HETATM   15  O   UNK N   1      34.273  13.493  12.214  0.00  0.00    -0.398 OA
HETATM   16  H   UNK N   1      34.233  12.821  11.515  0.00  0.00     0.209 HD
ENDBRANCH  14  15
ENDBRANCH  12  14
ENDBRANCH   3   9
BRANCH   8  17
HETATM   17  N   UNK N   1      35.342  10.929  20.948  0.00  0.00    -0.385 N 
HETATM   18  H   UNK N   1      35.534   9.965  20.997  0.00  0.00     0.157 HD
HETATM   19  H   UNK N   1      35.149  11.431  21.773  0.00  0.00     0.157 HD
ENDBRANCH   8  17
TORSDOF 4
ENDMDL
MODEL 2
REMARK VINA RESULT:      -5.2      8.131     11.291
REMARK  4 active torsions:
REMARK  status: ('A' for Active; 'I' for Inactive)
REMARK    1  A    between atoms: C_10  and  N_3 
REMARK    2  A    between atoms: C_8  and  N_9 
REMARK    3  A    between atoms: C_13  and  C_15 
REMARK    4  A    between atoms: C_15  and  O_16 
ROOT
HETATM    1  C   UNK N   1      31.453  17.214   6.110  0.00  0.00     0.065 A 
HETATM    2  C   UNK N   1      32.345  17.056   7.167  0.00  0.00     0.101 A 
HETATM    3  N   UNK N   1      33.607  16.569   6.961  0.00  0.00    -0.293 N 
HETATM    4  C   UNK N   1      33.993  16.236   5.672  0.00  0.00     0.329 A 
HETATM    5  O   UNK N   1      35.114  15.811   5.448  0.00  0.00    -0.246 OA
HETATM    6  N   UNK N   1      33.114  16.381   4.630  0.00  0.00    -0.295 N 
ATOM      7  HN  UNK N   1      33.405  16.122   3.688  1.00  0.00     0.172 HD
HETATM    8  C   UNK N   1      31.862  16.863   4.831  0.00  0.00     0.103 A 
ENDROOT
BRANCH   3   9
HETATM    9  C   UNK N   1      34.556  16.462   8.095  0.00  0.00     0.182 C 
HETATM   10  C   UNK N   1      34.730  17.773   8.835  0.00  0.00     0.206 C 
HETATM   11  O   UNK N   1      35.429  17.527  10.019  0.00  0.00    -0.370 OA
HETATM   12  C   UNK N   1      34.832  16.407  10.627  0.00  0.00     0.208 C 
HETATM   13  S   UNK N   1      33.985  15.355   9.396  0.00  0.00    -0.107 SA
BRANCH  12  14
HETATM   14  C   UNK N   1      35.921  15.593  11.305  0.00  0.00     0.207 C 
BRANCH  14  15
HETATM   15  O   UNK N   1      37.168  15.960  10.797  0.00  0.00    -0.398 OA
HETATM   16  H   UNK N   1      37.846  16.325  11.389  0.00  0.00     0.209 HD
ENDBRANCH  14  15
ENDBRANCH  12  14
ENDBRANCH   3   9
BRANCH   8  17
HETATM   17  N   UNK N   1      30.981  17.013   3.743  0.00  0.00    -0.385 N 
HETATM   18  H   UNK N   1      31.027  17.811   3.168  0.00  0.00     0.157 HD
HETATM   19  H   UNK N   1      30.314  16.314   3.556  0.00  0.00     0.157 HD
ENDBRANCH   8  17
TORSDOF 4
ENDMDL
MODEL 3
REMARK VINA RESULT:      -5.2     22.208     24.126
REMARK  4 active torsions:
REMARK  status: ('A' for Active; 'I' for Inactive)
REMARK    1  A    between atoms: C_10  and  N_3 
REMARK    2  A    between atoms: C_8  and  N_9 
REMARK    3  A    between atoms: C_13  and  C_15 
REMARK    4  A    between atoms: C_15  and  O_16 
ROOT
HETATM    1  C   UNK N   1      30.414  21.376  -5.140  0.00  0.00     0.065 A 
HETATM    2  C   UNK N   1      29.708  22.550  -4.890  0.00  0.00     0.101 A 
HETATM    3  N   UNK N   1      29.733  23.142  -3.657  0.00  0.00    -0.293 N 
HETATM    4  C   UNK N   1      30.482  22.555  -2.649  0.00  0.00     0.329 A 
HETATM    5  O   UNK N   1      30.538  23.061  -1.540  0.00  0.00    -0.246 OA
HETATM    6  N   UNK N   1      31.170  21.394  -2.888  0.00  0.00    -0.295 N 
ATOM      7  HN  UNK N   1      31.708  20.965  -2.135  1.00  0.00     0.172 HD
HETATM    8  C   UNK N   1      31.147  20.805  -4.109  0.00  0.00     0.103 A 
ENDROOT
BRANCH   3   9
HETATM    9  C   UNK N   1      29.017  24.421  -3.433  0.00  0.00     0.182 C 
HETATM   10  C   UNK N   1      29.252  25.423  -4.545  0.00  0.00     0.206 C 
HETATM   11  O   UNK N   1      28.357  26.483  -4.386  0.00  0.00    -0.370 OA
HETATM   12  C   UNK N   1      27.088  25.922  -4.150  0.00  0.00     0.208 C 
HETATM   13  S   UNK N   1      27.225  24.242  -3.443  0.00  0.00    -0.107 SA
BRANCH  12  14
HETATM   14  C   UNK N   1      26.346  26.811  -3.167  0.00  0.00     0.207 C 
BRANCH  14  15
HETATM   15  O   UNK N   1      25.487  27.665  -3.862  0.00  0.00    -0.398 OA
HETATM   16  H   UNK N   1      25.641  28.624  -3.851  0.00  0.00     0.209 HD
ENDBRANCH  14  15
ENDBRANCH  12  14
ENDBRANCH   3   9
BRANCH   8  17
HETATM   17  N   UNK N   1      31.871  19.618  -4.333  0.00  0.00    -0.385 N 
HETATM   18  H   UNK N   1      32.855  19.623  -4.325  0.00  0.00     0.157 HD
HETATM   19  H   UNK N   1      31.389  18.776  -4.499  0.00  0.00     0.157 HD
ENDBRANCH   8  17
TORSDOF 4
ENDMDL
MODEL 4
REMARK VINA RESULT:      -5.2     15.084     16.624
REMARK  4 active torsions:
REMARK  status: ('A' for Active; 'I' for Inactive)
REMARK    1  A    between atoms: C_10  and  N_3 
REMARK    2  A    between atoms: C_8  and  N_9 
REMARK    3  A    between atoms: C_13  and  C_15 
REMARK    4  A    between atoms: C_15  and  O_16 
ROOT
HETATM    1  C   UNK N   1      24.061  13.226   9.196  0.00  0.00     0.065 A 
HETATM    2  C   UNK N   1      23.000  13.695   8.427  0.00  0.00     0.101 A 
HETATM    3  N   UNK N   1      21.708  13.590   8.865  0.00  0.00    -0.293 N 
HETATM    4  C   UNK N   1      21.465  13.009  10.099  0.00  0.00     0.329 A 
HETATM    5  O   UNK N   1      20.328  12.910  10.528  0.00  0.00    -0.246 OA
HETATM    6  N   UNK N   1      22.507  12.536  10.855  0.00  0.00    -0.295 N 
ATOM      7  HN  UNK N   1      22.316  12.100  11.756  1.00  0.00     0.172 HD
HETATM    8  C   UNK N   1      23.789  12.639  10.424  0.00  0.00     0.103 A 
ENDROOT
BRANCH   3   9
HETATM    9  C   UNK N   1      20.600  14.147   8.051  0.00  0.00     0.182 C 
HETATM   10  C   UNK N   1      20.180  15.530   8.507  0.00  0.00     0.206 C 
HETATM   11  O   UNK N   1      19.324  16.075   7.548  0.00  0.00    -0.370 OA
HETATM   12  C   UNK N   1      19.918  15.858   6.291  0.00  0.00     0.208 C 
HETATM   13  S   UNK N   1      21.055  14.427   6.331  0.00  0.00    -0.107 SA
BRANCH  12  14
HETATM   14  C   UNK N   1      18.818  15.585   5.281  0.00  0.00     0.207 C 
BRANCH  14  15
HETATM   15  O   UNK N   1      17.574  15.861   5.853  0.00  0.00    -0.398 OA
HETATM   16  H   UNK N   1      16.880  16.288   5.326  0.00  0.00     0.209 HD
ENDBRANCH  14  15
ENDBRANCH  12  14
ENDBRANCH   3   9
BRANCH   8  17
HETATM   17  N   UNK N   1      24.843  12.156  11.223  0.00  0.00    -0.385 N 
HETATM   18  H   UNK N   1      25.070  11.198  11.227  0.00  0.00     0.157 HD
HETATM   19  H   UNK N   1      25.357  12.782  11.783  0.00  0.00     0.157 HD
ENDBRANCH   8  17
TORSDOF 4
ENDMDL
MODEL 5
REMARK VINA RESULT:      -5.1      5.543      7.384
REMARK  4 active torsions:
REMARK  status: ('A' for Active; 'I' for Inactive)
REMARK    1  A    between atoms: C_10  and  N_3 
REMARK    2  A    between atoms: C_8  and  N_9 
REMARK    3  A    between atoms: C_13  and  C_15 
REMARK    4  A    between atoms: C_15  and  O_16 
ROOT
HETATM    1  C   UNK N   1      35.374  13.899  12.698  0.00  0.00     0.065 A 
HETATM    2  C   UNK N   1      34.908  14.495  11.529  0.00  0.00     0.101 A 
HETATM    3  N   UNK N   1      35.717  14.634  10.435  0.00  0.00    -0.293 N 
HETATM    4  C   UNK N   1      37.020  14.166  10.502  0.00  0.00     0.329 A 
HETATM    5  O   UNK N   1      37.766  14.261   9.542  0.00  0.00    -0.246 OA
HETATM    6  N   UNK N   1      37.485  13.587  11.655  0.00  0.00    -0.295 N 
ATOM      7  HN  UNK N   1      38.449  13.257  11.697  1.00  0.00     0.172 HD
HETATM    8  C   UNK N   1      36.686  13.447  12.742  0.00  0.00     0.103 A 
ENDROOT
BRANCH   3   9
HETATM    9  C   UNK N   1      35.180  15.223   9.184  0.00  0.00     0.182 C 
HETATM   10  C   UNK N   1      33.956  14.489   8.674  0.00  0.00     0.206 C 
HETATM   11  O   UNK N   1      33.375  15.247   7.655  0.00  0.00    -0.370 OA
HETATM   12  C   UNK N   1      33.305  16.575   8.115  0.00  0.00     0.208 C 
HETATM   13  S   UNK N   1      34.566  16.902   9.397  0.00  0.00    -0.107 SA
BRANCH  12  14
HETATM   14  C   UNK N   1      33.546  17.504   6.938  0.00  0.00     0.207 C 
BRANCH  14  15
HETATM   15  O   UNK N   1      34.659  18.308   7.193  0.00  0.00    -0.398 OA
HETATM   16  H   UNK N   1      34.545  19.183   7.597  0.00  0.00     0.209 HD
ENDBRANCH  14  15
ENDBRANCH  12  14
ENDBRANCH   3   9
BRANCH   8  17
HETATM   17  N   UNK N   1      37.184  12.840  13.910  0.00  0.00    -0.385 N 
HETATM   18  H   UNK N   1      38.153  12.745  14.050  0.00  0.00     0.157 HD
HETATM   19  H   UNK N   1      36.557  12.509  14.593  0.00  0.00     0.157 HD
ENDBRANCH   8  17
TORSDOF 4
ENDMDL
MODEL 6
REMARK VINA RESULT:      -5.0      7.331      8.684
REMARK  4 active torsions:
REMARK  status: ('A' for Active; 'I' for Inactive)
REMARK    1  A    between atoms: C_10  and  N_3 
REMARK    2  A    between atoms: C_8  and  N_9 
REMARK    3  A    between atoms: C_13  and  C_15 
REMARK    4  A    between atoms: C_15  and  O_16 
ROOT
HETATM    1  C   UNK N   1      36.549  14.067   8.956  0.00  0.00     0.065 A 
HETATM    2  C   UNK N   1      35.410  14.809   8.654  0.00  0.00     0.101 A 
HETATM    3  N   UNK N   1      34.999  15.836   9.459  0.00  0.00    -0.293 N 
HETATM    4  C   UNK N   1      35.741  16.136  10.590  0.00  0.00     0.329 A 
HETATM    5  O   UNK N   1      35.412  17.053  11.325  0.00  0.00    -0.246 OA
HETATM    6  N   UNK N   1      36.857  15.402  10.898  0.00  0.00    -0.295 N 
ATOM      7  HN  UNK N   1      37.388  15.624  11.739  1.00  0.00     0.172 HD
HETATM    8  C   UNK N   1      37.267  14.383  10.101  0.00  0.00     0.103 A 
ENDROOT
BRANCH   3   9
HETATM    9  C   UNK N   1      33.814  16.645   9.084  0.00  0.00     0.182 C 
HETATM   10  C   UNK N   1      34.000  17.378   7.771  0.00  0.00     0.206 C 
HETATM   11  O   UNK N   1      32.768  17.901   7.374  0.00  0.00    -0.370 OA
HETATM   12  C   UNK N   1      31.816  16.875   7.521  0.00  0.00     0.208 C 
HETATM   13  S   UNK N   1      32.347  15.649   8.768  0.00  0.00    -0.107 SA
BRANCH  12  14
HETATM   14  C   UNK N   1      30.506  17.499   7.969  0.00  0.00     0.207 C 
BRANCH  14  15
HETATM   15  O   UNK N   1      30.684  18.137   9.198  0.00  0.00    -0.398 OA
HETATM   16  H   UNK N   1      31.423  17.885   9.774  0.00  0.00     0.209 HD
ENDBRANCH  14  15
ENDBRANCH  12  14
ENDBRANCH   3   9
BRANCH   8  17
HETATM   17  N   UNK N   1      38.423  13.651  10.433  0.00  0.00    -0.385 N 
HETATM   18  H   UNK N   1      39.285  14.108  10.566  0.00  0.00     0.157 HD
HETATM   19  H   UNK N   1      38.369  12.673  10.532  0.00  0.00     0.157 HD
ENDBRANCH   8  17
TORSDOF 4
ENDMDL
MODEL 7
REMARK VINA RESULT:      -5.0     10.836     11.530
REMARK  4 active torsions:
REMARK  status: ('A' for Active; 'I' for Inactive)
REMARK    1  A    between atoms: C_10  and  N_3 
REMARK    2  A    between atoms: C_8  and  N_9 
REMARK    3  A    between atoms: C_13  and  C_15 
REMARK    4  A    between atoms: C_15  and  O_16 
ROOT
HETATM    1  C   UNK N   1      30.127  18.257   9.104  0.00  0.00     0.065 A 
HETATM    2  C   UNK N   1      31.260  17.749   8.475  0.00  0.00     0.101 A 
HETATM    3  N   UNK N   1      31.176  17.129   7.258  0.00  0.00    -0.293 N 
HETATM    4  C   UNK N   1      29.936  17.016   6.650  0.00  0.00     0.329 A 
HETATM    5  O   UNK N   1      29.824  16.481   5.559  0.00  0.00    -0.246 OA
HETATM    6  N   UNK N   1      28.816  17.505   7.271  0.00  0.00    -0.295 N 
ATOM      7  HN  UNK N   1      27.908  17.405   6.819  1.00  0.00     0.172 HD
HETATM    8  C   UNK N   1      28.896  18.120   8.477  0.00  0.00     0.103 A 
ENDROOT
BRANCH   3   9
HETATM    9  C   UNK N   1      32.406  16.646   6.584  0.00  0.00     0.182 C 
HETATM   10  C   UNK N   1      33.565  17.613   6.723  0.00  0.00     0.206 C 
HETATM   11  O   UNK N   1      34.729  16.978   6.288  0.00  0.00    -0.370 OA
HETATM   12  C   UNK N   1      34.753  15.703   6.883  0.00  0.00     0.208 C 
HETATM   13  S   UNK N   1      33.068  15.139   7.313  0.00  0.00    -0.107 SA
BRANCH  12  14
HETATM   14  C   UNK N   1      35.364  14.724   5.895  0.00  0.00     0.207 C 
BRANCH  14  15
HETATM   15  O   UNK N   1      36.718  15.015   5.720  0.00  0.00    -0.398 OA
HETATM   16  H   UNK N   1      37.393  14.387   6.020  0.00  0.00     0.209 HD
ENDBRANCH  14  15
ENDBRANCH  12  14
ENDBRANCH   3   9
BRANCH   8  17
HETATM   17  N   UNK N   1      27.733  18.624   9.090  0.00  0.00    -0.385 N 
HETATM   18  H   UNK N   1      27.717  18.809  10.057  0.00  0.00     0.157 HD
HETATM   19  H   UNK N   1      26.930  18.794   8.547  0.00  0.00     0.157 HD
ENDBRANCH   8  17
TORSDOF 4
ENDMDL
MODEL 8
REMARK VINA RESULT:      -5.0     18.687     20.781
REMARK  4 active torsions:
REMARK  status: ('A' for Active; 'I' for Inactive)
REMARK    1  A    between atoms: C_10  and  N_3 
REMARK    2  A    between atoms: C_8  and  N_9 
REMARK    3  A    between atoms: C_13  and  C_15 
REMARK    4  A    between atoms: C_15  and  O_16 
ROOT
HETATM    1  C   UNK N   1      20.863  20.523   2.823  0.00  0.00     0.065 A 
HETATM    2  C   UNK N   1      21.021  19.598   3.851  0.00  0.00     0.101 A 
HETATM    3  N   UNK N   1      20.881  18.256   3.624  0.00  0.00    -0.293 N 
HETATM    4  C   UNK N   1      20.581  17.823   2.343  0.00  0.00     0.329 A 
HETATM    5  O   UNK N   1      20.461  16.633   2.100  0.00  0.00    -0.246 OA
HETATM    6  N   UNK N   1      20.414  18.731   1.329  0.00  0.00    -0.295 N 
ATOM      7  HN  UNK N   1      20.182  18.400   0.393  1.00  0.00     0.172 HD
HETATM    8  C   UNK N   1      20.553  20.062   1.551  0.00  0.00     0.103 A 
ENDROOT
BRANCH   3   9
HETATM    9  C   UNK N   1      21.109  17.289   4.725  0.00  0.00     0.182 C 
HETATM   10  C   UNK N   1      21.593  17.957   5.997  0.00  0.00     0.206 C 
HETATM   11  O   UNK N   1      21.540  17.027   7.037  0.00  0.00    -0.370 OA
HETATM   12  C   UNK N   1      20.284  16.396   6.964  0.00  0.00     0.208 C 
HETATM   13  S   UNK N   1      19.603  16.466   5.269  0.00  0.00    -0.107 SA
BRANCH  12  14
HETATM   14  C   UNK N   1      20.454  14.942   7.367  0.00  0.00     0.207 C 
BRANCH  14  15
HETATM   15  O   UNK N   1      19.938  14.113   6.370  0.00  0.00    -0.398 OA
HETATM   16  H   UNK N   1      19.765  14.468   5.483  0.00  0.00     0.209 HD
ENDBRANCH  14  15
ENDBRANCH  12  14
ENDBRANCH   3   9
BRANCH   8  17
HETATM   17  N   UNK N   1      20.388  20.974   0.491  0.00  0.00    -0.385 N 
HETATM   18  H   UNK N   1      20.054  20.669  -0.384  0.00  0.00     0.157 HD
HETATM   19  H   UNK N   1      20.607  21.924   0.626  0.00  0.00     0.157 HD
ENDBRANCH   8  17
TORSDOF 4
ENDMDL
MODEL 9
REMARK VINA RESULT:      -5.0      6.456      8.453
REMARK  4 active torsions:
REMARK  status: ('A' for Active; 'I' for Inactive)
REMARK    1  A    between atoms: C_10  and  N_3 
REMARK    2  A    between atoms: C_8  and  N_9 
REMARK    3  A    between atoms: C_13  and  C_15 
REMARK    4  A    between atoms: C_15  and  O_16 
ROOT
HETATM    1  C   UNK N   1      32.400  15.556   8.788  0.00  0.00     0.065 A 
HETATM    2  C   UNK N   1      33.486  14.907   9.370  0.00  0.00     0.101 A 
HETATM    3  N   UNK N   1      34.582  15.606   9.798  0.00  0.00    -0.293 N 
HETATM    4  C   UNK N   1      34.597  16.983   9.649  0.00  0.00     0.329 A 
HETATM    5  O   UNK N   1      35.551  17.640  10.030  0.00  0.00    -0.246 OA
HETATM    6  N   UNK N   1      33.534  17.625   9.067  0.00  0.00    -0.295 N 
ATOM      7  HN  UNK N   1      33.561  18.638   8.952  1.00  0.00     0.172 HD
HETATM    8  C   UNK N   1      32.446  16.936   8.642  0.00  0.00     0.103 A 
ENDROOT
BRANCH   3   9
HETATM    9  C   UNK N   1      35.701  14.896  10.463  0.00  0.00     0.182 C 
HETATM   10  C   UNK N   1      35.482  14.729  11.953  0.00  0.00     0.206 C 
HETATM   11  O   UNK N   1      36.442  13.845  12.449  0.00  0.00    -0.370 OA
HETATM   12  C   UNK N   1      36.478  12.741  11.577  0.00  0.00     0.208 C 
HETATM   13  S   UNK N   1      35.893  13.194   9.906  0.00  0.00    -0.107 SA
BRANCH  12  14
HETATM   14  C   UNK N   1      37.913  12.252  11.481  0.00  0.00     0.207 C 
BRANCH  14  15
HETATM   15  O   UNK N   1      38.728  13.276  10.995  0.00  0.00    -0.398 OA
HETATM   16  H   UNK N   1      39.559  13.063  10.541  0.00  0.00     0.209 HD
ENDBRANCH  14  15
ENDBRANCH  12  14
ENDBRANCH   3   9
BRANCH   8  17
HETATM   17  N   UNK N   1      31.362  17.619   8.058  0.00  0.00    -0.385 N 
HETATM   18  H   UNK N   1      31.374  17.851   7.102  0.00  0.00     0.157 HD
HETATM   19  H   UNK N   1      30.586  17.867   8.611  0.00  0.00     0.157 HD
ENDBRANCH   8  17
TORSDOF 4
ENDMDL
