MODEL 1
REMARK VINA RESULT:      -8.2      0.000      0.000
REMARK WARNING: 32 MAX_TORS EXCEEDED!!!
REMARK  42 active torsions:
REMARK  status: ('A' for Active; 'I' for Inactive)
REMARK    1  A    between atoms: C_2  and  C_3 
REMARK    2  A    between atoms: C_3  and  C_4 
REMARK    3  A    between atoms: C_4  and  C_5 
REMARK    4  A    between atoms: C_5  and  C_6 
REMARK    5  A    between atoms: C_5  and  N_33 
REMARK       I    between atoms: C_6  and  N_8 
REMARK    6  A    between atoms: C_9  and  N_8 
REMARK    7  A    between atoms: C_9  and  C_10 
REMARK    8  A    between atoms: C_9  and  C_18 
REMARK    9  A    between atoms: C_10  and  C_11 
REMARK   10  A    between atoms: C_11  and  C_12 
REMARK   11  A    between atoms: C_12  and  N_13 
REMARK       I    between atoms: N_13  and  C_14 
REMARK       I    between atoms: C_14  and  N_17 
REMARK       I    between atoms: C_18  and  N_20 
REMARK   12  A    between atoms: C_24  and  C_25 
REMARK       I    between atoms: C_25  and  N_27 
REMARK   13  A    between atoms: N_27  and  C_28 
REMARK   14  A    between atoms: C_28  and  C_30 
REMARK       I    between atoms: C_30  and  N_32 
REMARK       I    between atoms: N_33  and  C_34 
REMARK   15  A    between atoms: C_34  and  C_36 
REMARK   16  A    between atoms: C_36  and  C_37 
REMARK   17  A    between atoms: C_36  and  N_45 
REMARK   18  A    between atoms: C_37  and  C_38 
REMARK   19  A    between atoms: C_38  and  C_39 
REMARK   20  A    between atoms: C_39  and  C_40 
REMARK   21  A    between atoms: C_40  and  N_41 
REMARK       I    between atoms: N_41  and  C_42 
REMARK       I    between atoms: C_42  and  N_44 
REMARK       I    between atoms: N_45  and  C_46 
REMARK   22  A    between atoms: C_46  and  C_48 
REMARK   23  A    between atoms: C_48  and  C_49 
REMARK   24  A    between atoms: C_48  and  N_57 
REMARK   25  A    between atoms: C_49  and  C_50 
REMARK   26  A    between atoms: C_53  and  O_56 
REMARK       I    between atoms: N_57  and  C_59 
REMARK   27  A    between atoms: C_59  and  C_61 
REMARK   28  A    between atoms: C_61  and  C_62 
REMARK   29  A    between atoms: C_61  and  N_64 
REMARK   30  A    between atoms: C_62  and  O_63 
REMARK       I    between atoms: N_64  and  C_65 
REMARK   31  A    between atoms: C_65  and  C_67 
REMARK   32  A    between atoms: C_67  and  C_68 
REMARK   33  A    between atoms: C_67  and  N_76 
REMARK   34  A    between atoms: C_68  and  C_69 
REMARK       I    between atoms: N_76  and  C_77 
REMARK   35  A    between atoms: C_77  and  C_79 
REMARK   36  A    between atoms: C_79  and  C_80 
REMARK   37  A    between atoms: C_79  and  N_88 
REMARK   38  A    between atoms: C_80  and  C_81 
REMARK       I    between atoms: N_88  and  C_89 
REMARK   39  A    between atoms: C_89  and  C_91 
REMARK   40  A    between atoms: C_91  and  C_92 
REMARK   41  A    between atoms: C_91  and  N_103 
REMARK   42  A    between atoms: C_92  and  C_93 
REMARK       I    between atoms: N_103  and  C_104 
ROOT
HETATM    1  C   UNK N   1      29.993  15.653   4.950  0.00  0.00     0.183 C 
ENDROOT
BRANCH   1   2
HETATM    2  C   UNK N   1      29.823  14.170   5.166  0.00  0.00     0.241 C 
HETATM    3  N   UNK N   1      28.625  13.535   5.133  0.00  0.00    -0.346 N 
HETATM    4  H   UNK N   1      28.685  12.556   5.207  0.00  0.00     0.163 HD
HETATM    5  O   UNK N   1      30.803  13.510   5.466  0.00  0.00    -0.271 OA
BRANCH   3   6
HETATM    6  C   UNK N   1      27.275  14.043   5.009  0.00  0.00     0.176 C 
BRANCH   6   7
HETATM    7  C   UNK N   1      26.861  14.482   3.636  0.00  0.00     0.241 C 
HETATM    8  N   UNK N   1      26.000  15.511   3.460  0.00  0.00    -0.346 N 
HETATM    9  H   UNK N   1      25.658  15.669   2.550  0.00  0.00     0.163 HD
HETATM   10  O   UNK N   1      27.288  13.894   2.656  0.00  0.00    -0.271 OA
BRANCH   8  11
HETATM   11  C   UNK N   1      25.544  16.395   4.512  0.00  0.00     0.176 C 
BRANCH  11  12
HETATM   12  C   UNK N   1      25.168  17.757   3.908  0.00  0.00     0.035 C 
BRANCH  12  13
HETATM   13  C   UNK N   1      26.317  18.765   3.903  0.00  0.00     0.002 C 
BRANCH  13  14
HETATM   14  C   UNK N   1      26.112  19.846   4.951  0.00  0.00    -0.004 C 
HETATM   15  C   UNK N   1      27.443  20.473   5.309  0.00  0.00     0.005 C 
ENDBRANCH  13  14
ENDBRANCH  12  13
ENDBRANCH  11  12
BRANCH  11  16
HETATM   16  C   UNK N   1      24.382  15.877   5.291  0.00  0.00     0.241 C 
HETATM   17  O   UNK N   1      24.494  15.759   6.504  0.00  0.00    -0.271 OA
HETATM   18  N   UNK N   1      23.168  15.783   4.692  0.00  0.00    -0.346 N 
HETATM   19  H   UNK N   1      23.123  15.672   3.716  0.00  0.00     0.163 HD
BRANCH  18  20
HETATM   20  C   UNK N   1      21.938  15.839   5.446  0.00  0.00     0.176 C 
BRANCH  20  21
HETATM   21  C   UNK N   1      21.052  17.060   5.248  0.00  0.00     0.036 C 
BRANCH  21  22
HETATM   22  C   UNK N   1      20.778  17.413   3.795  0.00  0.00     0.023 C 
BRANCH  22  23
HETATM   23  C   UNK N   1      21.056  18.891   3.532  0.00  0.00     0.138 C 
BRANCH  23  24
HETATM   24  N   UNK N   1      20.778  19.257   2.158  0.00  0.00    -0.227 N 
HETATM   25  C   UNK N   1      20.789  20.598   1.687  0.00  0.00     0.665 C 
HETATM   26  N   UNK N   1      21.130  21.563   2.460  0.00  0.00    -0.235 N 
HETATM   27  N   UNK N   1      20.434  20.870   0.349  0.00  0.00    -0.235 N 
HETATM   28  H   UNK N   1      20.829  21.576   3.397  0.00  0.00     0.174 HD
ATOM     29  HN  UNK N   1      21.714  22.318   2.103  1.00  0.00     0.174 HD
HETATM   30  H   UNK N   1      20.373  21.689  -0.194  0.00  0.00     0.174 HD
HETATM   31  H   UNK N   1      20.193  20.059  -0.155  0.00  0.00     0.174 HD
HETATM   32  H   UNK N   1      20.570  18.540   1.516  0.00  0.00     0.177 HD
ENDBRANCH  23  24
ENDBRANCH  22  23
ENDBRANCH  21  22
ENDBRANCH  20  21
BRANCH  20  33
HETATM   33  C   UNK N   1      21.420  14.439   5.628  0.00  0.00     0.243 C 
HETATM   34  O   UNK N   1      21.034  13.796   4.663  0.00  0.00    -0.271 OA
HETATM   35  N   UNK N   1      21.631  13.828   6.824  0.00  0.00    -0.337 N 
HETATM   36  C   UNK N   1      21.557  12.404   6.997  0.00  0.00     0.127 C 
HETATM   37  C   UNK N   1      21.962  14.562   8.014  0.00  0.00     0.179 C 
HETATM   38  C   UNK N   1      22.048  12.165   8.422  0.00  0.00     0.022 C 
HETATM   39  C   UNK N   1      22.572  13.511   8.927  0.00  0.00     0.037 C 
BRANCH  37  40
HETATM   40  C   UNK N   1      20.649  14.992   8.602  0.00  0.00     0.241 C 
HETATM   41  O   UNK N   1      19.865  14.171   9.050  0.00  0.00    -0.271 OA
HETATM   42  N   UNK N   1      20.394  16.328   8.644  0.00  0.00    -0.346 N 
HETATM   43  H   UNK N   1      21.132  16.894   8.318  0.00  0.00     0.163 HD
BRANCH  42  44
HETATM   44  C   UNK N   1      19.228  17.062   9.084  0.00  0.00     0.172 C 
HETATM   45  C   UNK N   1      18.007  16.893   8.195  0.00  0.00     0.042 C 
BRANCH  44  46
HETATM   46  C   UNK N   1      19.597  18.515   9.231  0.00  0.00     0.237 C 
HETATM   47  O   UNK N   1      20.338  19.038   8.417  0.00  0.00    -0.271 OA
HETATM   48  N   UNK N   1      19.087  19.256  10.239  0.00  0.00    -0.368 N 
HETATM   49  H   UNK N   1      19.404  20.177  10.383  0.00  0.00     0.159 HD
HETATM   50  H   UNK N   1      18.399  18.875  10.832  0.00  0.00     0.159 HD
ENDBRANCH  44  46
ENDBRANCH  42  44
ENDBRANCH  37  40
ENDBRANCH  20  33
ENDBRANCH  18  20
ENDBRANCH  11  16
ENDBRANCH   8  11
ENDBRANCH   6   7
BRANCH   6  51
HETATM   51  C   UNK N   1      26.298  12.957   5.468  0.00  0.00     0.035 C 
BRANCH  51  52
HETATM   52  C   UNK N   1      26.505  11.620   4.774  0.00  0.00     0.004 C 
BRANCH  52  53
HETATM   53  C   UNK N   1      25.198  11.009   4.280  0.00  0.00     0.020 C 
BRANCH  53  54
HETATM   54  C   UNK N   1      24.242  12.096   3.816  0.00  0.00     0.124 C 
BRANCH  54  55
HETATM   55  N   UNK N   1      24.153  12.128   2.371  0.00  0.00    -0.343 N 
HETATM   56  C   UNK N   1      23.782  13.250   1.707  0.00  0.00     0.313 C 
HETATM   57  O   UNK N   1      23.485  14.263   2.304  0.00  0.00    -0.248 OA
HETATM   58  N   UNK N   1      23.747  13.235   0.354  0.00  0.00    -0.352 N 
HETATM   59  H   UNK N   1      23.979  13.139  -0.598  0.00  0.00     0.160 HD
HETATM   60  H   UNK N   1      22.817  13.538   0.238  0.00  0.00     0.160 HD
HETATM   61  H   UNK N   1      24.366  11.314   1.858  0.00  0.00     0.164 HD
ENDBRANCH  54  55
ENDBRANCH  53  54
ENDBRANCH  52  53
ENDBRANCH  51  52
ENDBRANCH   6  51
ENDBRANCH   3   6
ENDBRANCH   1   2
BRANCH   1  62
HETATM   62  C   UNK N   1      28.950  16.726   5.359  0.00  0.00     0.073 C 
BRANCH  62  63
HETATM   63  C   UNK N   1      29.111  17.202   6.790  0.00  0.00    -0.056 A 
HETATM   64  C   UNK N   1      27.999  17.278   7.637  0.00  0.00     0.010 A 
HETATM   65  C   UNK N   1      28.161  17.663   8.978  0.00  0.00     0.037 A 
HETATM   66  C   UNK N   1      29.436  17.972   9.474  0.00  0.00     0.065 A 
HETATM   67  C   UNK N   1      30.540  17.912   8.633  0.00  0.00     0.037 A 
HETATM   68  C   UNK N   1      30.375  17.526   7.308  0.00  0.00     0.010 A 
BRANCH  66  69
HETATM   69  O   UNK N   1      29.599  18.321  10.759  0.00  0.00    -0.361 OA
HETATM   70  H   UNK N   1      28.911  18.364  11.393  0.00  0.00     0.217 HD
ENDBRANCH  66  69
ENDBRANCH  62  63
ENDBRANCH   1  62
BRANCH   1  71
HETATM   71  N   UNK N   1      30.775  15.981   3.786  0.00  0.00    -0.341 N 
HETATM   72  C   UNK N   1      30.040  16.248   2.572  0.00  0.00     0.153 C 
HETATM   73  C   UNK N   1      32.142  15.998   3.750  0.00  0.00     0.245 C 
HETATM   74  O   UNK N   1      32.689  16.135   2.662  0.00  0.00    -0.271 OA
BRANCH  73  75
HETATM   75  C   UNK N   1      33.080  15.903   4.948  0.00  0.00     0.200 C 
BRANCH  75  76
HETATM   76  C   UNK N   1      33.212  16.979   6.032  0.00  0.00     0.199 C 
BRANCH  76  77
HETATM   77  O   UNK N   1      34.514  17.465   6.132  0.00  0.00    -0.398 OA
HETATM   78  H   UNK N   1      34.969  17.825   5.356  0.00  0.00     0.209 HD
ENDBRANCH  76  77
ENDBRANCH  75  76
BRANCH  75  79
HETATM   79  N   UNK N   1      34.362  15.572   4.391  0.00  0.00    -0.344 N 
HETATM   80  C   UNK N   1      34.976  14.403   4.668  0.00  0.00     0.241 C 
HETATM   81  O   UNK N   1      35.920  14.059   3.976  0.00  0.00    -0.271 OA
HETATM   82  H   UNK N   1      34.803  16.214   3.790  0.00  0.00     0.163 HD
BRANCH  80  83
HETATM   83  C   UNK N   1      34.524  13.510   5.804  0.00  0.00     0.180 C 
BRANCH  83  84
HETATM   84  C   UNK N   1      35.430  13.718   7.033  0.00  0.00     0.074 C 
BRANCH  84  85
HETATM   85  C   UNK N   1      34.870  14.608   8.102  0.00  0.00    -0.040 A 
HETATM   86  C   UNK N   1      35.698  15.445   8.855  0.00  0.00     0.010 A 
HETATM   87  C   UNK N   1      35.138  16.273   9.831  0.00  0.00     0.018 A 
HETATM   88  C   UNK N   1      33.757  16.253  10.038  0.00  0.00     0.087 A 
HETATM   89  N   UNK N   1      32.968  15.429   9.296  0.00  0.00    -0.375 N 
HETATM   90  C   UNK N   1      33.493  14.613   8.343  0.00  0.00     0.094 A 
ATOM     91  HN  UNK N   1      31.961  15.424   9.458  1.00  0.00     0.164 HD
ENDBRANCH  84  85
ENDBRANCH  83  84
BRANCH  83  92
HETATM   92  N   UNK N   1      34.479  12.109   5.401  0.00  0.00    -0.346 N 
HETATM   93  C   UNK N   1      34.451  11.020   6.219  0.00  0.00     0.241 C 
HETATM   94  O   UNK N   1      34.536   9.910   5.720  0.00  0.00    -0.271 OA
HETATM   95  H   UNK N   1      34.468  11.931   4.433  0.00  0.00     0.163 HD
BRANCH  93  96
HETATM   96  C   UNK N   1      34.391  11.117   7.716  0.00  0.00     0.180 C 
BRANCH  96  97
HETATM   97  C   UNK N   1      35.612  10.832   8.605  0.00  0.00     0.073 C 
BRANCH  97  98
HETATM   98  C   UNK N   1      35.828  11.753   9.764  0.00  0.00    -0.056 A 
HETATM   99  C   UNK N   1      34.726  12.217  10.496  0.00  0.00     0.009 A 
HETATM  100  C   UNK N   1      34.921  13.020  11.627  0.00  0.00     0.024 A 
HETATM  101  C   UNK N   1      36.217  13.352  12.033  0.00  0.00     0.034 A 
HETATM  102  C   UNK N   1      37.316  12.879  11.314  0.00  0.00     0.024 A 
HETATM  103 Cl   UNK N   1      36.464  14.357  13.445  0.00  0.00    -0.084 Cl
HETATM  104  C   UNK N   1      37.122  12.072  10.189  0.00  0.00     0.009 A 
ENDBRANCH  97  98
ENDBRANCH  96  97
BRANCH  96 105
HETATM  105  N   UNK N   1      33.079  11.017   8.302  0.00  0.00    -0.346 N 
HETATM  106  C   UNK N   1      32.645   9.906   8.911  0.00  0.00     0.241 C 
HETATM  107  O   UNK N   1      31.546   9.899   9.445  0.00  0.00    -0.271 OA
HETATM  108  H   UNK N   1      32.478  11.797   8.254  0.00  0.00     0.163 HD
BRANCH 106 109
HETATM  109  C   UNK N   1      33.494   8.679   8.888  0.00  0.00     0.180 C 
BRANCH 109 110
HETATM  110  C   UNK N   1      33.662   7.827  10.141  0.00  0.00     0.073 C 
BRANCH 110 111
HETATM  111  C   UNK N   1      34.426   8.547  11.181  0.00  0.00    -0.055 A 
HETATM  112  C   UNK N   1      35.815   8.419  11.199  0.00  0.00     0.008 A 
HETATM  113  C   UNK N   1      36.561   9.020  12.210  0.00  0.00     0.013 A 
HETATM  114  C   UNK N   1      35.917   9.753  13.206  0.00  0.00    -0.026 A 
HETATM  115  C   UNK N   1      36.661  10.327  14.238  0.00  0.00     0.012 A 
HETATM  116  C   UNK N   1      34.511   9.909  13.177  0.00  0.00    -0.025 A 
HETATM  117  C   UNK N   1      36.015  11.055  15.241  0.00  0.00     0.001 A 
HETATM  118  C   UNK N   1      34.625  11.220  15.206  0.00  0.00     0.001 A 
HETATM  119  C   UNK N   1      33.873  10.647  14.176  0.00  0.00     0.012 A 
HETATM  120  C   UNK N   1      33.769   9.300  12.163  0.00  0.00     0.019 A 
ENDBRANCH 110 111
ENDBRANCH 109 110
BRANCH 109 121
HETATM  121  N   UNK N   1      33.606   8.014   7.617  0.00  0.00    -0.348 N 
HETATM  122  C   UNK N   1      32.604   7.221   7.169  0.00  0.00     0.214 C 
HETATM  123  O   UNK N   1      31.603   7.036   7.849  0.00  0.00    -0.274 OA
HETATM  124  C   UNK N   1      32.717   6.567   5.839  0.00  0.00     0.117 C 
HETATM  125  H   UNK N   1      34.414   8.138   7.068  0.00  0.00     0.163 HD
ENDBRANCH 109 121
ENDBRANCH 106 109
ENDBRANCH  96 105
ENDBRANCH  93  96
ENDBRANCH  83  92
ENDBRANCH  80  83
ENDBRANCH  75  79
ENDBRANCH  73  75
ENDBRANCH   1  71
TORSDOF 42
ENDMDL
MODEL 2
REMARK VINA RESULT:      -7.8      2.911      6.759
REMARK WARNING: 32 MAX_TORS EXCEEDED!!!
REMARK  42 active torsions:
REMARK  status: ('A' for Active; 'I' for Inactive)
REMARK    1  A    between atoms: C_2  and  C_3 
REMARK    2  A    between atoms: C_3  and  C_4 
REMARK    3  A    between atoms: C_4  and  C_5 
REMARK    4  A    between atoms: C_5  and  C_6 
REMARK    5  A    between atoms: C_5  and  N_33 
REMARK       I    between atoms: C_6  and  N_8 
REMARK    6  A    between atoms: C_9  and  N_8 
REMARK    7  A    between atoms: C_9  and  C_10 
REMARK    8  A    between atoms: C_9  and  C_18 
REMARK    9  A    between atoms: C_10  and  C_11 
REMARK   10  A    between atoms: C_11  and  C_12 
REMARK   11  A    between atoms: C_12  and  N_13 
REMARK       I    between atoms: N_13  and  C_14 
REMARK       I    between atoms: C_14  and  N_17 
REMARK       I    between atoms: C_18  and  N_20 
REMARK   12  A    between atoms: C_24  and  C_25 
REMARK       I    between atoms: C_25  and  N_27 
REMARK   13  A    between atoms: N_27  and  C_28 
REMARK   14  A    between atoms: C_28  and  C_30 
REMARK       I    between atoms: C_30  and  N_32 
REMARK       I    between atoms: N_33  and  C_34 
REMARK   15  A    between atoms: C_34  and  C_36 
REMARK   16  A    between atoms: C_36  and  C_37 
REMARK   17  A    between atoms: C_36  and  N_45 
REMARK   18  A    between atoms: C_37  and  C_38 
REMARK   19  A    between atoms: C_38  and  C_39 
REMARK   20  A    between atoms: C_39  and  C_40 
REMARK   21  A    between atoms: C_40  and  N_41 
REMARK       I    between atoms: N_41  and  C_42 
REMARK       I    between atoms: C_42  and  N_44 
REMARK       I    between atoms: N_45  and  C_46 
REMARK   22  A    between atoms: C_46  and  C_48 
REMARK   23  A    between atoms: C_48  and  C_49 
REMARK   24  A    between atoms: C_48  and  N_57 
REMARK   25  A    between atoms: C_49  and  C_50 
REMARK   26  A    between atoms: C_53  and  O_56 
REMARK       I    between atoms: N_57  and  C_59 
REMARK   27  A    between atoms: C_59  and  C_61 
REMARK   28  A    between atoms: C_61  and  C_62 
REMARK   29  A    between atoms: C_61  and  N_64 
REMARK   30  A    between atoms: C_62  and  O_63 
REMARK       I    between atoms: N_64  and  C_65 
REMARK   31  A    between atoms: C_65  and  C_67 
REMARK   32  A    between atoms: C_67  and  C_68 
REMARK   33  A    between atoms: C_67  and  N_76 
REMARK   34  A    between atoms: C_68  and  C_69 
REMARK       I    between atoms: N_76  and  C_77 
REMARK   35  A    between atoms: C_77  and  C_79 
REMARK   36  A    between atoms: C_79  and  C_80 
REMARK   37  A    between atoms: C_79  and  N_88 
REMARK   38  A    between atoms: C_80  and  C_81 
REMARK       I    between atoms: N_88  and  C_89 
REMARK   39  A    between atoms: C_89  and  C_91 
REMARK   40  A    between atoms: C_91  and  C_92 
REMARK   41  A    between atoms: C_91  and  N_103 
REMARK   42  A    between atoms: C_92  and  C_93 
REMARK       I    between atoms: N_103  and  C_104 
ROOT
HETATM    1  C   UNK N   1      31.650  16.517   6.750  0.00  0.00     0.183 C 
ENDROOT
BRANCH   1   2
HETATM    2  C   UNK N   1      31.095  17.509   7.742  0.00  0.00     0.241 C 
HETATM    3  N   UNK N   1      29.772  17.761   7.896  0.00  0.00    -0.346 N 
HETATM    4  H   UNK N   1      29.561  18.371   8.640  0.00  0.00     0.163 HD
HETATM    5  O   UNK N   1      31.878  18.185   8.387  0.00  0.00    -0.271 OA
BRANCH   3   6
HETATM    6  C   UNK N   1      28.616  17.294   7.161  0.00  0.00     0.176 C 
BRANCH   6   7
HETATM    7  C   UNK N   1      27.487  16.752   7.985  0.00  0.00     0.241 C 
HETATM    8  N   UNK N   1      26.413  16.169   7.405  0.00  0.00    -0.346 N 
HETATM    9  H   UNK N   1      25.643  15.954   7.981  0.00  0.00     0.163 HD
HETATM   10  O   UNK N   1      27.521  16.851   9.202  0.00  0.00    -0.271 OA
BRANCH   8  11
HETATM   11  C   UNK N   1      26.311  15.840   5.999  0.00  0.00     0.176 C 
BRANCH  11  12
HETATM   12  C   UNK N   1      26.904  14.444   5.756  0.00  0.00     0.035 C 
BRANCH  12  13
HETATM   13  C   UNK N   1      28.017  14.423   4.709  0.00  0.00     0.002 C 
BRANCH  13  14
HETATM   14  C   UNK N   1      28.077  15.731   3.936  0.00  0.00    -0.004 C 
HETATM   15  C   UNK N   1      27.719  15.486   2.485  0.00  0.00     0.005 C 
ENDBRANCH  13  14
ENDBRANCH  12  13
ENDBRANCH  11  12
BRANCH  11  16
HETATM   16  C   UNK N   1      24.921  15.873   5.457  0.00  0.00     0.241 C 
HETATM   17  O   UNK N   1      24.699  15.339   4.380  0.00  0.00    -0.271 OA
HETATM   18  N   UNK N   1      23.902  16.267   6.262  0.00  0.00    -0.346 N 
HETATM   19  H   UNK N   1      24.093  16.873   7.014  0.00  0.00     0.163 HD
BRANCH  18  20
HETATM   20  C   UNK N   1      22.545  15.824   6.048  0.00  0.00     0.176 C 
BRANCH  20  21
HETATM   21  C   UNK N   1      22.112  14.538   6.737  0.00  0.00     0.036 C 
BRANCH  21  22
HETATM   22  C   UNK N   1      21.623  14.720   8.164  0.00  0.00     0.023 C 
BRANCH  22  23
HETATM   23  C   UNK N   1      22.222  13.658   9.084  0.00  0.00     0.138 C 
BRANCH  23  24
HETATM   24  N   UNK N   1      21.309  13.287  10.147  0.00  0.00    -0.227 N 
HETATM   25  C   UNK N   1      21.513  12.168  10.998  0.00  0.00     0.665 C 
HETATM   26  N   UNK N   1      22.580  11.463  10.912  0.00  0.00    -0.235 N 
HETATM   27  N   UNK N   1      20.535  11.837  11.961  0.00  0.00    -0.235 N 
HETATM   28  H   UNK N   1      22.957  11.242  10.030  0.00  0.00     0.174 HD
ATOM     29  HN  UNK N   1      23.040  11.131  11.759  1.00  0.00     0.174 HD
HETATM   30  H   UNK N   1      20.454  11.135  12.646  0.00  0.00     0.174 HD
HETATM   31  H   UNK N   1      19.760  12.444  11.942  0.00  0.00     0.174 HD
HETATM   32  H   UNK N   1      20.506  13.839  10.286  0.00  0.00     0.177 HD
ENDBRANCH  23  24
ENDBRANCH  22  23
ENDBRANCH  21  22
ENDBRANCH  20  21
BRANCH  20  33
HETATM   33  C   UNK N   1      21.665  17.032   5.882  0.00  0.00     0.243 C 
HETATM   34  O   UNK N   1      21.457  17.777   6.830  0.00  0.00    -0.271 OA
HETATM   35  N   UNK N   1      21.325  17.411   4.622  0.00  0.00    -0.337 N 
HETATM   36  C   UNK N   1      20.847  18.728   4.304  0.00  0.00     0.127 C 
HETATM   37  C   UNK N   1      21.433  16.522   3.498  0.00  0.00     0.179 C 
HETATM   38  C   UNK N   1      20.784  18.754   2.779  0.00  0.00     0.022 C 
HETATM   39  C   UNK N   1      21.439  17.457   2.299  0.00  0.00     0.037 C 
BRANCH  37  40
HETATM   40  C   UNK N   1      20.152  15.738   3.478  0.00  0.00     0.241 C 
HETATM   41  O   UNK N   1      19.255  15.986   4.269  0.00  0.00    -0.271 OA
HETATM   42  N   UNK N   1      20.026  14.776   2.524  0.00  0.00    -0.346 N 
HETATM   43  H   UNK N   1      20.786  14.719   1.901  0.00  0.00     0.163 HD
BRANCH  42  44
HETATM   44  C   UNK N   1      18.970  13.823   2.268  0.00  0.00     0.172 C 
HETATM   45  C   UNK N   1      19.233  12.429   2.815  0.00  0.00     0.042 C 
BRANCH  44  46
HETATM   46  C   UNK N   1      18.703  13.783   0.786  0.00  0.00     0.237 C 
HETATM   47  O   UNK N   1      18.949  12.771   0.153  0.00  0.00    -0.271 OA
HETATM   48  N   UNK N   1      18.161  14.847   0.154  0.00  0.00    -0.368 N 
HETATM   49  H   UNK N   1      18.075  14.848  -0.827  0.00  0.00     0.159 HD
HETATM   50  H   UNK N   1      17.851  15.623   0.675  0.00  0.00     0.159 HD
ENDBRANCH  44  46
ENDBRANCH  42  44
ENDBRANCH  37  40
ENDBRANCH  20  33
ENDBRANCH  18  20
ENDBRANCH  11  16
ENDBRANCH   8  11
ENDBRANCH   6   7
BRANCH   6  51
HETATM   51  C   UNK N   1      28.068  18.451   6.321  0.00  0.00     0.035 C 
BRANCH  51  52
HETATM   52  C   UNK N   1      27.808  19.717   7.124  0.00  0.00     0.004 C 
BRANCH  52  53
HETATM   53  C   UNK N   1      27.490  20.916   6.238  0.00  0.00     0.020 C 
BRANCH  53  54
HETATM   54  C   UNK N   1      27.396  20.495   4.781  0.00  0.00     0.124 C 
BRANCH  54  55
HETATM   55  N   UNK N   1      26.077  20.764   4.246  0.00  0.00    -0.343 N 
HETATM   56  C   UNK N   1      25.320  19.783   3.696  0.00  0.00     0.313 C 
HETATM   57  O   UNK N   1      25.734  18.647   3.607  0.00  0.00    -0.248 OA
HETATM   58  N   UNK N   1      24.082  20.081   3.240  0.00  0.00    -0.352 N 
HETATM   59  H   UNK N   1      23.151  20.396   3.164  0.00  0.00     0.160 HD
HETATM   60  H   UNK N   1      24.186  19.739   2.323  0.00  0.00     0.160 HD
HETATM   61  H   UNK N   1      25.722  21.682   4.282  0.00  0.00     0.164 HD
ENDBRANCH  54  55
ENDBRANCH  53  54
ENDBRANCH  52  53
ENDBRANCH  51  52
ENDBRANCH   6  51
ENDBRANCH   3   6
ENDBRANCH   1   2
BRANCH   1  62
HETATM   62  C   UNK N   1      31.060  15.105   6.496  0.00  0.00     0.073 C 
BRANCH  62  63
HETATM   63  C   UNK N   1      31.745  14.366   5.362  0.00  0.00    -0.056 A 
HETATM   64  C   UNK N   1      31.580  14.794   4.039  0.00  0.00     0.010 A 
HETATM   65  C   UNK N   1      32.263  14.143   2.998  0.00  0.00     0.037 A 
HETATM   66  C   UNK N   1      33.112  13.064   3.279  0.00  0.00     0.065 A 
HETATM   67  C   UNK N   1      33.267  12.627   4.588  0.00  0.00     0.037 A 
HETATM   68  C   UNK N   1      32.593  13.277   5.615  0.00  0.00     0.010 A 
BRANCH  66  69
HETATM   69  O   UNK N   1      33.783  12.452   2.291  0.00  0.00    -0.361 OA
HETATM   70  H   UNK N   1      34.465  12.846   1.785  0.00  0.00     0.217 HD
ENDBRANCH  66  69
ENDBRANCH  62  63
ENDBRANCH   1  62
BRANCH   1  71
HETATM   71  N   UNK N   1      33.075  16.620   6.568  0.00  0.00    -0.341 N 
HETATM   72  C   UNK N   1      33.524  17.340   5.400  0.00  0.00     0.153 C 
HETATM   73  C   UNK N   1      34.005  16.041   7.387  0.00  0.00     0.245 C 
HETATM   74  O   UNK N   1      35.179  16.067   7.037  0.00  0.00    -0.271 OA
BRANCH  73  75
HETATM   75  C   UNK N   1      33.738  15.387   8.739  0.00  0.00     0.200 C 
BRANCH  75  76
HETATM   76  C   UNK N   1      32.453  14.634   9.098  0.00  0.00     0.199 C 
BRANCH  76  77
HETATM   77  O   UNK N   1      32.006  14.941  10.382  0.00  0.00    -0.398 OA
HETATM   78  H   UNK N   1      32.637  15.123  11.095  0.00  0.00     0.209 HD
ENDBRANCH  76  77
ENDBRANCH  75  76
BRANCH  75  79
HETATM   79  N   UNK N   1      34.027  16.408   9.708  0.00  0.00    -0.344 N 
HETATM   80  C   UNK N   1      35.044  16.287  10.586  0.00  0.00     0.241 C 
HETATM   81  O   UNK N   1      35.408  17.275  11.201  0.00  0.00    -0.271 OA
HETATM   82  H   UNK N   1      33.468  17.217   9.731  0.00  0.00     0.163 HD
BRANCH  80  83
HETATM   83  C   UNK N   1      35.744  14.965  10.822  0.00  0.00     0.180 C 
BRANCH  83  84
HETATM   84  C   UNK N   1      35.618  14.557  12.303  0.00  0.00     0.074 C 
BRANCH  84  85
HETATM   85  C   UNK N   1      35.829  13.100  12.589  0.00  0.00    -0.040 A 
HETATM   86  C   UNK N   1      37.114  12.572  12.747  0.00  0.00     0.010 A 
HETATM   87  C   UNK N   1      37.272  11.213  13.030  0.00  0.00     0.018 A 
HETATM   88  C   UNK N   1      36.141  10.404  13.153  0.00  0.00     0.087 A 
HETATM   89  N   UNK N   1      34.899  10.935  12.994  0.00  0.00    -0.375 N 
HETATM   90  C   UNK N   1      34.723  12.255  12.715  0.00  0.00     0.094 A 
ATOM     91  HN  UNK N   1      34.082  10.332  13.086  1.00  0.00     0.164 HD
ENDBRANCH  84  85
ENDBRANCH  83  84
BRANCH  83  92
HETATM   92  N   UNK N   1      37.139  15.012  10.396  0.00  0.00    -0.346 N 
HETATM   93  C   UNK N   1      37.738  14.228   9.457  0.00  0.00     0.241 C 
HETATM   94  O   UNK N   1      38.944  14.316   9.303  0.00  0.00    -0.271 OA
HETATM   95  H   UNK N   1      37.709  15.685  10.835  0.00  0.00     0.163 HD
BRANCH  93  96
HETATM   96  C   UNK N   1      36.996  13.206   8.645  0.00  0.00     0.180 C 
BRANCH  96  97
HETATM   97  C   UNK N   1      37.100  11.699   8.933  0.00  0.00     0.073 C 
BRANCH  97  98
HETATM   98  C   UNK N   1      35.812  10.961   9.120  0.00  0.00    -0.056 A 
HETATM   99  C   UNK N   1      35.820   9.691   9.712  0.00  0.00     0.009 A 
HETATM  100  C   UNK N   1      34.615   9.022   9.960  0.00  0.00     0.024 A 
HETATM  101  C   UNK N   1      33.399   9.626   9.625  0.00  0.00     0.034 A 
HETATM  102  C   UNK N   1      33.388  10.899   9.048  0.00  0.00     0.024 A 
HETATM  103 Cl   UNK N   1      31.891   8.793   9.931  0.00  0.00    -0.084 Cl
HETATM  104  C   UNK N   1      34.592  11.569   8.807  0.00  0.00     0.009 A 
ENDBRANCH  97  98
ENDBRANCH  96  97
BRANCH  96 105
HETATM  105  N   UNK N   1      36.579  13.625   7.332  0.00  0.00    -0.346 N 
HETATM  106  C   UNK N   1      37.115  13.123   6.212  0.00  0.00     0.241 C 
HETATM  107  O   UNK N   1      36.678  13.470   5.124  0.00  0.00    -0.271 OA
HETATM  108  H   UNK N   1      35.872  14.307   7.255  0.00  0.00     0.163 HD
BRANCH 106 109
HETATM  109  C   UNK N   1      38.268  12.180   6.310  0.00  0.00     0.180 C 
BRANCH 109 110
HETATM  110  C   UNK N   1      38.326  10.932   5.436  0.00  0.00     0.073 C 
BRANCH 110 111
HETATM  111  C   UNK N   1      37.369   9.907   5.900  0.00  0.00    -0.055 A 
HETATM  112  C   UNK N   1      37.867   8.760   6.520  0.00  0.00     0.008 A 
HETATM  113  C   UNK N   1      37.001   7.737   6.900  0.00  0.00     0.013 A 
HETATM  114  C   UNK N   1      35.633   7.861   6.662  0.00  0.00    -0.026 A 
HETATM  115  C   UNK N   1      34.769   6.823   7.012  0.00  0.00     0.012 A 
HETATM  116  C   UNK N   1      35.120   9.034   6.059  0.00  0.00    -0.025 A 
HETATM  117  C   UNK N   1      33.399   6.944   6.767  0.00  0.00     0.001 A 
HETATM  118  C   UNK N   1      32.889   8.109   6.181  0.00  0.00     0.001 A 
HETATM  119  C   UNK N   1      33.748   9.154   5.827  0.00  0.00     0.012 A 
HETATM  120  C   UNK N   1      35.994  10.054   5.677  0.00  0.00     0.019 A 
ENDBRANCH 110 111
ENDBRANCH 109 110
BRANCH 109 121
HETATM  121  N   UNK N   1      39.518  12.757   6.725  0.00  0.00    -0.348 N 
HETATM  122  C   UNK N   1      40.283  13.441   5.841  0.00  0.00     0.214 C 
HETATM  123  O   UNK N   1      39.937  13.555   4.673  0.00  0.00    -0.274 OA
HETATM  124  C   UNK N   1      41.557  14.060   6.291  0.00  0.00     0.117 C 
HETATM  125  H   UNK N   1      39.820  12.656   7.657  0.00  0.00     0.163 HD
ENDBRANCH 109 121
ENDBRANCH 106 109
ENDBRANCH  96 105
ENDBRANCH  93  96
ENDBRANCH  83  92
ENDBRANCH  80  83
ENDBRANCH  75  79
ENDBRANCH  73  75
ENDBRANCH   1  71
TORSDOF 42
ENDMDL
MODEL 3
REMARK VINA RESULT:      -7.6      2.132      4.187
REMARK WARNING: 32 MAX_TORS EXCEEDED!!!
REMARK  42 active torsions:
REMARK  status: ('A' for Active; 'I' for Inactive)
REMARK    1  A    between atoms: C_2  and  C_3 
REMARK    2  A    between atoms: C_3  and  C_4 
REMARK    3  A    between atoms: C_4  and  C_5 
REMARK    4  A    between atoms: C_5  and  C_6 
REMARK    5  A    between atoms: C_5  and  N_33 
REMARK       I    between atoms: C_6  and  N_8 
REMARK    6  A    between atoms: C_9  and  N_8 
REMARK    7  A    between atoms: C_9  and  C_10 
REMARK    8  A    between atoms: C_9  and  C_18 
REMARK    9  A    between atoms: C_10  and  C_11 
REMARK   10  A    between atoms: C_11  and  C_12 
REMARK   11  A    between atoms: C_12  and  N_13 
REMARK       I    between atoms: N_13  and  C_14 
REMARK       I    between atoms: C_14  and  N_17 
REMARK       I    between atoms: C_18  and  N_20 
REMARK   12  A    between atoms: C_24  and  C_25 
REMARK       I    between atoms: C_25  and  N_27 
REMARK   13  A    between atoms: N_27  and  C_28 
REMARK   14  A    between atoms: C_28  and  C_30 
REMARK       I    between atoms: C_30  and  N_32 
REMARK       I    between atoms: N_33  and  C_34 
REMARK   15  A    between atoms: C_34  and  C_36 
REMARK   16  A    between atoms: C_36  and  C_37 
REMARK   17  A    between atoms: C_36  and  N_45 
REMARK   18  A    between atoms: C_37  and  C_38 
REMARK   19  A    between atoms: C_38  and  C_39 
REMARK   20  A    between atoms: C_39  and  C_40 
REMARK   21  A    between atoms: C_40  and  N_41 
REMARK       I    between atoms: N_41  and  C_42 
REMARK       I    between atoms: C_42  and  N_44 
REMARK       I    between atoms: N_45  and  C_46 
REMARK   22  A    between atoms: C_46  and  C_48 
REMARK   23  A    between atoms: C_48  and  C_49 
REMARK   24  A    between atoms: C_48  and  N_57 
REMARK   25  A    between atoms: C_49  and  C_50 
REMARK   26  A    between atoms: C_53  and  O_56 
REMARK       I    between atoms: N_57  and  C_59 
REMARK   27  A    between atoms: C_59  and  C_61 
REMARK   28  A    between atoms: C_61  and  C_62 
REMARK   29  A    between atoms: C_61  and  N_64 
REMARK   30  A    between atoms: C_62  and  O_63 
REMARK       I    between atoms: N_64  and  C_65 
REMARK   31  A    between atoms: C_65  and  C_67 
REMARK   32  A    between atoms: C_67  and  C_68 
REMARK   33  A    between atoms: C_67  and  N_76 
REMARK   34  A    between atoms: C_68  and  C_69 
REMARK       I    between atoms: N_76  and  C_77 
REMARK   35  A    between atoms: C_77  and  C_79 
REMARK   36  A    between atoms: C_79  and  C_80 
REMARK   37  A    between atoms: C_79  and  N_88 
REMARK   38  A    between atoms: C_80  and  C_81 
REMARK       I    between atoms: N_88  and  C_89 
REMARK   39  A    between atoms: C_89  and  C_91 
REMARK   40  A    between atoms: C_91  and  C_92 
REMARK   41  A    between atoms: C_91  and  N_103 
REMARK   42  A    between atoms: C_92  and  C_93 
REMARK       I    between atoms: N_103  and  C_104 
ROOT
HETATM    1  C   UNK N   1      30.604  16.019   4.895  0.00  0.00     0.183 C 
ENDROOT
BRANCH   1   2
HETATM    2  C   UNK N   1      29.930  14.715   5.243  0.00  0.00     0.241 C 
HETATM    3  N   UNK N   1      28.586  14.533   5.228  0.00  0.00    -0.346 N 
HETATM    4  H   UNK N   1      28.302  13.605   5.396  0.00  0.00     0.163 HD
HETATM    5  O   UNK N   1      30.620  13.791   5.639  0.00  0.00    -0.271 OA
BRANCH   3   6
HETATM    6  C   UNK N   1      27.496  15.460   5.010  0.00  0.00     0.176 C 
BRANCH   6   7
HETATM    7  C   UNK N   1      27.146  15.739   3.579  0.00  0.00     0.241 C 
HETATM    8  N   UNK N   1      26.491  16.869   3.225  0.00  0.00    -0.346 N 
HETATM    9  H   UNK N   1      26.168  16.938   2.297  0.00  0.00     0.163 HD
HETATM   10  O   UNK N   1      27.437  14.929   2.713  0.00  0.00    -0.271 OA
BRANCH   8  11
HETATM   11  C   UNK N   1      26.229  17.982   4.112  0.00  0.00     0.176 C 
BRANCH  11  12
HETATM   12  C   UNK N   1      26.909  19.246   3.562  0.00  0.00     0.035 C 
BRANCH  12  13
HETATM   13  C   UNK N   1      27.707  20.019   4.611  0.00  0.00     0.002 C 
BRANCH  13  14
HETATM   14  C   UNK N   1      26.821  20.477   5.757  0.00  0.00    -0.004 C 
HETATM   15  C   UNK N   1      27.435  21.686   6.430  0.00  0.00     0.005 C 
ENDBRANCH  13  14
ENDBRANCH  12  13
ENDBRANCH  11  12
BRANCH  11  16
HETATM   16  C   UNK N   1      24.781  18.271   4.327  0.00  0.00     0.241 C 
HETATM   17  O   UNK N   1      24.258  19.165   3.676  0.00  0.00    -0.271 OA
HETATM   18  N   UNK N   1      24.027  17.398   5.042  0.00  0.00    -0.346 N 
HETATM   19  H   UNK N   1      24.464  16.828   5.715  0.00  0.00     0.163 HD
BRANCH  18  20
HETATM   20  C   UNK N   1      22.602  17.281   4.846  0.00  0.00     0.176 C 
BRANCH  20  21
HETATM   21  C   UNK N   1      22.118  16.270   3.818  0.00  0.00     0.036 C 
BRANCH  21  22
HETATM   22  C   UNK N   1      21.189  16.840   2.760  0.00  0.00     0.023 C 
BRANCH  22  23
HETATM   23  C   UNK N   1      20.935  18.326   3.001  0.00  0.00     0.138 C 
BRANCH  23  24
HETATM   24  N   UNK N   1      20.650  19.033   1.768  0.00  0.00    -0.227 N 
HETATM   25  C   UNK N   1      20.713  20.447   1.644  0.00  0.00     0.665 C 
HETATM   26  N   UNK N   1      21.110  21.175   2.622  0.00  0.00    -0.235 N 
HETATM   27  N   UNK N   1      20.348  21.056   0.424  0.00  0.00    -0.235 N 
HETATM   28  H   UNK N   1      20.826  20.967   3.540  0.00  0.00     0.174 HD
ATOM     29  HN  UNK N   1      21.721  21.972   2.447  1.00  0.00     0.174 HD
HETATM   30  H   UNK N   1      20.315  21.986   0.103  0.00  0.00     0.174 HD
HETATM   31  H   UNK N   1      20.063  20.406  -0.258  0.00  0.00     0.174 HD
HETATM   32  H   UNK N   1      20.399  18.506   0.975  0.00  0.00     0.177 HD
ENDBRANCH  23  24
ENDBRANCH  22  23
ENDBRANCH  21  22
ENDBRANCH  20  21
BRANCH  20  33
HETATM   33  C   UNK N   1      21.912  17.553   6.154  0.00  0.00     0.243 C 
HETATM   34  O   UNK N   1      21.734  18.704   6.529  0.00  0.00    -0.271 OA
HETATM   35  N   UNK N   1      21.273  16.523   6.769  0.00  0.00    -0.337 N 
HETATM   36  C   UNK N   1      20.266  16.717   7.775  0.00  0.00     0.127 C 
HETATM   37  C   UNK N   1      21.546  15.150   6.448  0.00  0.00     0.179 C 
HETATM   38  C   UNK N   1      19.704  15.321   8.029  0.00  0.00     0.022 C 
HETATM   39  C   UNK N   1      20.325  14.408   6.968  0.00  0.00     0.037 C 
BRANCH  37  40
HETATM   40  C   UNK N   1      22.726  14.764   7.293  0.00  0.00     0.241 C 
HETATM   41  O   UNK N   1      23.779  15.377   7.214  0.00  0.00    -0.271 OA
HETATM   42  N   UNK N   1      22.556  13.735   8.168  0.00  0.00    -0.346 N 
HETATM   43  H   UNK N   1      21.642  13.367   8.191  0.00  0.00     0.163 HD
BRANCH  42  44
HETATM   44  C   UNK N   1      23.483  13.087   9.068  0.00  0.00     0.172 C 
HETATM   45  C   UNK N   1      24.077  11.793   8.536  0.00  0.00     0.042 C 
BRANCH  44  46
HETATM   46  C   UNK N   1      22.799  12.868  10.392  0.00  0.00     0.237 C 
HETATM   47  O   UNK N   1      21.611  13.111  10.508  0.00  0.00    -0.271 OA
HETATM   48  N   UNK N   1      23.483  12.370  11.446  0.00  0.00    -0.368 N 
HETATM   49  H   UNK N   1      23.054  12.317  12.331  0.00  0.00     0.159 HD
HETATM   50  H   UNK N   1      24.411  12.062  11.330  0.00  0.00     0.159 HD
ENDBRANCH  44  46
ENDBRANCH  42  44
ENDBRANCH  37  40
ENDBRANCH  20  33
ENDBRANCH  18  20
ENDBRANCH  11  16
ENDBRANCH   8  11
ENDBRANCH   6   7
BRANCH   6  51
HETATM   51  C   UNK N   1      26.243  14.915   5.701  0.00  0.00     0.035 C 
BRANCH  51  52
HETATM   52  C   UNK N   1      26.088  13.407   5.579  0.00  0.00     0.004 C 
BRANCH  52  53
HETATM   53  C   UNK N   1      24.865  13.009   4.761  0.00  0.00     0.020 C 
BRANCH  53  54
HETATM   54  C   UNK N   1      25.216  11.910   3.772  0.00  0.00     0.124 C 
BRANCH  54  55
HETATM   55  N   UNK N   1      26.523  12.134   3.189  0.00  0.00    -0.343 N 
HETATM   56  C   UNK N   1      26.798  11.783   1.908  0.00  0.00     0.313 C 
HETATM   57  O   UNK N   1      25.964  11.242   1.213  0.00  0.00    -0.248 OA
HETATM   58  N   UNK N   1      28.025  12.044   1.402  0.00  0.00    -0.352 N 
HETATM   59  H   UNK N   1      28.857  12.488   1.117  0.00  0.00     0.160 HD
HETATM   60  H   UNK N   1      28.248  11.132   1.104  0.00  0.00     0.160 HD
HETATM   61  H   UNK N   1      27.228  12.550   3.735  0.00  0.00     0.164 HD
ENDBRANCH  54  55
ENDBRANCH  53  54
ENDBRANCH  52  53
ENDBRANCH  51  52
ENDBRANCH   6  51
ENDBRANCH   3   6
ENDBRANCH   1   2
BRANCH   1  62
HETATM   62  C   UNK N   1      30.070  17.418   5.297  0.00  0.00     0.073 C 
BRANCH  62  63
HETATM   63  C   UNK N   1      29.924  17.595   6.797  0.00  0.00    -0.056 A 
HETATM   64  C   UNK N   1      31.051  17.533   7.627  0.00  0.00     0.010 A 
HETATM   65  C   UNK N   1      30.920  17.756   9.008  0.00  0.00     0.037 A 
HETATM   66  C   UNK N   1      29.664  18.040   9.560  0.00  0.00     0.065 A 
HETATM   67  C   UNK N   1      28.541  18.087   8.742  0.00  0.00     0.037 A 
HETATM   68  C   UNK N   1      28.676  17.871   7.376  0.00  0.00     0.010 A 
BRANCH  66  69
HETATM   69  O   UNK N   1      29.536  18.273  10.875  0.00  0.00    -0.361 OA
HETATM   70  H   UNK N   1      29.440  17.609  11.529  0.00  0.00     0.217 HD
ENDBRANCH  66  69
ENDBRANCH  62  63
ENDBRANCH   1  62
BRANCH   1  71
HETATM   71  N   UNK N   1      31.325  15.980   3.649  0.00  0.00    -0.341 N 
HETATM   72  C   UNK N   1      30.580  16.331   2.463  0.00  0.00     0.153 C 
HETATM   73  C   UNK N   1      32.629  15.587   3.520  0.00  0.00     0.245 C 
HETATM   74  O   UNK N   1      33.079  15.444   2.390  0.00  0.00    -0.271 OA
BRANCH  73  75
HETATM   75  C   UNK N   1      33.616  15.338   4.656  0.00  0.00     0.200 C 
BRANCH  75  76
HETATM   76  C   UNK N   1      34.197  16.435   5.555  0.00  0.00     0.199 C 
BRANCH  76  77
HETATM   77  O   UNK N   1      33.591  16.462   6.809  0.00  0.00    -0.398 OA
HETATM   78  H   UNK N   1      32.695  16.817   6.918  0.00  0.00     0.209 HD
ENDBRANCH  76  77
ENDBRANCH  75  76
BRANCH  75  79
HETATM   79  N   UNK N   1      34.659  14.542   4.073  0.00  0.00    -0.344 N 
HETATM   80  C   UNK N   1      34.695  13.200   4.218  0.00  0.00     0.241 C 
HETATM   81  O   UNK N   1      35.437  12.553   3.498  0.00  0.00    -0.271 OA
HETATM   82  H   UNK N   1      35.366  14.986   3.553  0.00  0.00     0.163 HD
BRANCH  80  83
HETATM   83  C   UNK N   1      33.839  12.483   5.241  0.00  0.00     0.180 C 
BRANCH  83  84
HETATM   84  C   UNK N   1      32.694  11.730   4.536  0.00  0.00     0.074 C 
BRANCH  84  85
HETATM   85  C   UNK N   1      32.111  10.581   5.305  0.00  0.00    -0.040 A 
HETATM   86  C   UNK N   1      32.915   9.761   6.101  0.00  0.00     0.010 A 
HETATM   87  C   UNK N   1      32.335   8.711   6.817  0.00  0.00     0.018 A 
HETATM   88  C   UNK N   1      30.957   8.500   6.727  0.00  0.00     0.087 A 
HETATM   89  N   UNK N   1      30.192   9.308   5.945  0.00  0.00    -0.375 N 
HETATM   90  C   UNK N   1      30.738  10.334   5.238  0.00  0.00     0.094 A 
ATOM     91  HN  UNK N   1      29.187   9.141   5.887  1.00  0.00     0.164 HD
ENDBRANCH  84  85
ENDBRANCH  83  84
BRANCH  83  92
HETATM   92  N   UNK N   1      33.334  13.401   6.256  0.00  0.00    -0.346 N 
HETATM   93  C   UNK N   1      33.512  13.313   7.604  0.00  0.00     0.241 C 
HETATM   94  O   UNK N   1      32.921  14.099   8.325  0.00  0.00    -0.271 OA
HETATM   95  H   UNK N   1      32.807  14.167   5.932  0.00  0.00     0.163 HD
BRANCH  93  96
HETATM   96  C   UNK N   1      34.347  12.249   8.255  0.00  0.00     0.180 C 
BRANCH  96  97
HETATM   97  C   UNK N   1      33.980  11.638   9.617  0.00  0.00     0.073 C 
BRANCH  97  98
HETATM   98  C   UNK N   1      34.074  10.149   9.731  0.00  0.00    -0.056 A 
HETATM   99  C   UNK N   1      35.097   9.465   9.062  0.00  0.00     0.009 A 
HETATM  100  C   UNK N   1      35.240   8.081   9.221  0.00  0.00     0.024 A 
HETATM  101  C   UNK N   1      34.365   7.380  10.057  0.00  0.00     0.034 A 
HETATM  102  C   UNK N   1      33.353   8.062  10.736  0.00  0.00     0.024 A 
HETATM  103 Cl   UNK N   1      34.538   5.650  10.257  0.00  0.00    -0.084 Cl
HETATM  104  C   UNK N   1      33.215   9.446  10.582  0.00  0.00     0.009 A 
ENDBRANCH  97  98
ENDBRANCH  96  97
BRANCH  96 105
HETATM  105  N   UNK N   1      35.715  12.163   7.813  0.00  0.00    -0.346 N 
HETATM  106  C   UNK N   1      36.724  12.744   8.476  0.00  0.00     0.241 C 
HETATM  107  O   UNK N   1      37.872  12.585   8.090  0.00  0.00    -0.271 OA
HETATM  108  H   UNK N   1      35.917  11.659   6.991  0.00  0.00     0.163 HD
BRANCH 106 109
HETATM  109  C   UNK N   1      36.424  13.611   9.653  0.00  0.00     0.180 C 
BRANCH 109 110
HETATM  110  C   UNK N   1      37.137  13.390  10.983  0.00  0.00     0.073 C 
BRANCH 110 111
HETATM  111  C   UNK N   1      36.628  12.186  11.671  0.00  0.00    -0.055 A 
HETATM  112  C   UNK N   1      35.544  12.320  12.540  0.00  0.00     0.008 A 
HETATM  113  C   UNK N   1      35.088  11.222  13.265  0.00  0.00     0.013 A 
HETATM  114  C   UNK N   1      35.713   9.984  13.119  0.00  0.00    -0.026 A 
HETATM  115  C   UNK N   1      35.278   8.892  13.870  0.00  0.00     0.012 A 
HETATM  116  C   UNK N   1      36.794   9.837  12.218  0.00  0.00    -0.025 A 
HETATM  117  C   UNK N   1      35.910   7.653  13.729  0.00  0.00     0.001 A 
HETATM  118  C   UNK N   1      36.972   7.503  12.829  0.00  0.00     0.001 A 
HETATM  119  C   UNK N   1      37.415   8.594  12.074  0.00  0.00     0.012 A 
HETATM  120  C   UNK N   1      37.250  10.943  11.497  0.00  0.00     0.019 A 
ENDBRANCH 110 111
ENDBRANCH 109 110
BRANCH 109 121
HETATM  121  N   UNK N   1      35.982  14.947   9.353  0.00  0.00    -0.348 N 
HETATM  122  C   UNK N   1      35.075  15.563  10.149  0.00  0.00     0.214 C 
HETATM  123  O   UNK N   1      34.600  14.985  11.117  0.00  0.00    -0.274 OA
HETATM  124  C   UNK N   1      34.652  16.955   9.847  0.00  0.00     0.117 C 
HETATM  125  H   UNK N   1      36.341  15.417   8.566  0.00  0.00     0.163 HD
ENDBRANCH 109 121
ENDBRANCH 106 109
ENDBRANCH  96 105
ENDBRANCH  93  96
ENDBRANCH  83  92
ENDBRANCH  80  83
ENDBRANCH  75  79
ENDBRANCH  73  75
ENDBRANCH   1  71
TORSDOF 42
ENDMDL
MODEL 4
REMARK VINA RESULT:      -7.6      2.203      4.756
REMARK WARNING: 32 MAX_TORS EXCEEDED!!!
REMARK  42 active torsions:
REMARK  status: ('A' for Active; 'I' for Inactive)
REMARK    1  A    between atoms: C_2  and  C_3 
REMARK    2  A    between atoms: C_3  and  C_4 
REMARK    3  A    between atoms: C_4  and  C_5 
REMARK    4  A    between atoms: C_5  and  C_6 
REMARK    5  A    between atoms: C_5  and  N_33 
REMARK       I    between atoms: C_6  and  N_8 
REMARK    6  A    between atoms: C_9  and  N_8 
REMARK    7  A    between atoms: C_9  and  C_10 
REMARK    8  A    between atoms: C_9  and  C_18 
REMARK    9  A    between atoms: C_10  and  C_11 
REMARK   10  A    between atoms: C_11  and  C_12 
REMARK   11  A    between atoms: C_12  and  N_13 
REMARK       I    between atoms: N_13  and  C_14 
REMARK       I    between atoms: C_14  and  N_17 
REMARK       I    between atoms: C_18  and  N_20 
REMARK   12  A    between atoms: C_24  and  C_25 
REMARK       I    between atoms: C_25  and  N_27 
REMARK   13  A    between atoms: N_27  and  C_28 
REMARK   14  A    between atoms: C_28  and  C_30 
REMARK       I    between atoms: C_30  and  N_32 
REMARK       I    between atoms: N_33  and  C_34 
REMARK   15  A    between atoms: C_34  and  C_36 
REMARK   16  A    between atoms: C_36  and  C_37 
REMARK   17  A    between atoms: C_36  and  N_45 
REMARK   18  A    between atoms: C_37  and  C_38 
REMARK   19  A    between atoms: C_38  and  C_39 
REMARK   20  A    between atoms: C_39  and  C_40 
REMARK   21  A    between atoms: C_40  and  N_41 
REMARK       I    between atoms: N_41  and  C_42 
REMARK       I    between atoms: C_42  and  N_44 
REMARK       I    between atoms: N_45  and  C_46 
REMARK   22  A    between atoms: C_46  and  C_48 
REMARK   23  A    between atoms: C_48  and  C_49 
REMARK   24  A    between atoms: C_48  and  N_57 
REMARK   25  A    between atoms: C_49  and  C_50 
REMARK   26  A    between atoms: C_53  and  O_56 
REMARK       I    between atoms: N_57  and  C_59 
REMARK   27  A    between atoms: C_59  and  C_61 
REMARK   28  A    between atoms: C_61  and  C_62 
REMARK   29  A    between atoms: C_61  and  N_64 
REMARK   30  A    between atoms: C_62  and  O_63 
REMARK       I    between atoms: N_64  and  C_65 
REMARK   31  A    between atoms: C_65  and  C_67 
REMARK   32  A    between atoms: C_67  and  C_68 
REMARK   33  A    between atoms: C_67  and  N_76 
REMARK   34  A    between atoms: C_68  and  C_69 
REMARK       I    between atoms: N_76  and  C_77 
REMARK   35  A    between atoms: C_77  and  C_79 
REMARK   36  A    between atoms: C_79  and  C_80 
REMARK   37  A    between atoms: C_79  and  N_88 
REMARK   38  A    between atoms: C_80  and  C_81 
REMARK       I    between atoms: N_88  and  C_89 
REMARK   39  A    between atoms: C_89  and  C_91 
REMARK   40  A    between atoms: C_91  and  C_92 
REMARK   41  A    between atoms: C_91  and  N_103 
REMARK   42  A    between atoms: C_92  and  C_93 
REMARK       I    between atoms: N_103  and  C_104 
ROOT
HETATM    1  C   UNK N   1      30.017  15.888   4.859  0.00  0.00     0.183 C 
ENDROOT
BRANCH   1   2
HETATM    2  C   UNK N   1      29.487  14.514   5.186  0.00  0.00     0.241 C 
HETATM    3  N   UNK N   1      28.180  14.167   5.091  0.00  0.00    -0.346 N 
HETATM    4  H   UNK N   1      28.002  13.213   5.256  0.00  0.00     0.163 HD
HETATM    5  O   UNK N   1      30.260  13.687   5.640  0.00  0.00    -0.271 OA
BRANCH   3   6
HETATM    6  C   UNK N   1      27.001  14.950   4.788  0.00  0.00     0.176 C 
BRANCH   6   7
HETATM    7  C   UNK N   1      26.734  15.204   3.335  0.00  0.00     0.241 C 
HETATM    8  N   UNK N   1      26.157  16.354   2.919  0.00  0.00    -0.346 N 
HETATM    9  H   UNK N   1      25.882  16.413   1.975  0.00  0.00     0.163 HD
HETATM   10  O   UNK N   1      27.021  14.354   2.507  0.00  0.00    -0.271 OA
BRANCH   8  11
HETATM   11  C   UNK N   1      25.913  17.506   3.762  0.00  0.00     0.176 C 
BRANCH  11  12
HETATM   12  C   UNK N   1      25.510  18.704   2.887  0.00  0.00     0.035 C 
BRANCH  12  13
HETATM   13  C   UNK N   1      26.062  20.040   3.383  0.00  0.00     0.002 C 
BRANCH  13  14
HETATM   14  C   UNK N   1      27.409  19.864   4.065  0.00  0.00    -0.004 C 
HETATM   15  C   UNK N   1      27.422  20.619   5.378  0.00  0.00     0.005 C 
ENDBRANCH  13  14
ENDBRANCH  12  13
ENDBRANCH  11  12
BRANCH  11  16
HETATM   16  C   UNK N   1      24.865  17.298   4.803  0.00  0.00     0.241 C 
HETATM   17  O   UNK N   1      25.003  17.837   5.892  0.00  0.00    -0.271 OA
HETATM   18  N   UNK N   1      23.682  16.730   4.453  0.00  0.00    -0.346 N 
HETATM   19  H   UNK N   1      23.652  16.128   3.675  0.00  0.00     0.163 HD
BRANCH  18  20
HETATM   20  C   UNK N   1      22.467  16.983   5.188  0.00  0.00     0.176 C 
BRANCH  20  21
HETATM   21  C   UNK N   1      21.522  18.039   4.635  0.00  0.00     0.036 C 
BRANCH  21  22
HETATM   22  C   UNK N   1      21.521  18.156   3.120  0.00  0.00     0.023 C 
BRANCH  22  23
HETATM   23  C   UNK N   1      20.139  18.552   2.604  0.00  0.00     0.138 C 
BRANCH  23  24
HETATM   24  N   UNK N   1      20.221  19.346   1.395  0.00  0.00    -0.227 N 
HETATM   25  C   UNK N   1      20.585  20.720   1.384  0.00  0.00     0.665 C 
HETATM   26  N   UNK N   1      20.941  21.313   2.463  0.00  0.00    -0.235 N 
HETATM   27  N   UNK N   1      20.567  21.435   0.168  0.00  0.00    -0.235 N 
HETATM   28  H   UNK N   1      20.465  21.136   3.306  0.00  0.00     0.174 HD
ATOM     29  HN  UNK N   1      21.720  21.971   2.448  1.00  0.00     0.174 HD
HETATM   30  H   UNK N   1      20.776  22.363  -0.087  0.00  0.00     0.174 HD
HETATM   31  H   UNK N   1      20.281  20.884  -0.596  0.00  0.00     0.174 HD
HETATM   32  H   UNK N   1      20.012  18.912   0.536  0.00  0.00     0.177 HD
ENDBRANCH  23  24
ENDBRANCH  22  23
ENDBRANCH  21  22
ENDBRANCH  20  21
BRANCH  20  33
HETATM   33  C   UNK N   1      22.018  15.701   5.832  0.00  0.00     0.243 C 
HETATM   34  O   UNK N   1      22.315  15.458   6.994  0.00  0.00    -0.271 OA
HETATM   35  N   UNK N   1      21.077  14.957   5.194  0.00  0.00    -0.337 N 
HETATM   36  C   UNK N   1      20.286  13.959   5.858  0.00  0.00     0.127 C 
HETATM   37  C   UNK N   1      20.786  15.123   3.796  0.00  0.00     0.179 C 
HETATM   38  C   UNK N   1      19.253  13.533   4.818  0.00  0.00     0.022 C 
HETATM   39  C   UNK N   1      19.410  14.494   3.638  0.00  0.00     0.037 C 
BRANCH  37  40
HETATM   40  C   UNK N   1      21.782  14.265   3.071  0.00  0.00     0.241 C 
HETATM   41  O   UNK N   1      22.676  13.696   3.677  0.00  0.00    -0.271 OA
HETATM   42  N   UNK N   1      21.621  14.124   1.727  0.00  0.00    -0.346 N 
HETATM   43  H   UNK N   1      20.823  14.572   1.364  0.00  0.00     0.163 HD
BRANCH  42  44
HETATM   44  C   UNK N   1      22.418  13.430   0.740  0.00  0.00     0.172 C 
HETATM   45  C   UNK N   1      22.147  11.936   0.649  0.00  0.00     0.042 C 
BRANCH  44  46
HETATM   46  C   UNK N   1      23.873  13.703   1.015  0.00  0.00     0.237 C 
HETATM   47  O   UNK N   1      24.337  14.806   0.787  0.00  0.00    -0.271 OA
HETATM   48  N   UNK N   1      24.666  12.745   1.545  0.00  0.00    -0.368 N 
HETATM   49  H   UNK N   1      25.634  12.899   1.635  0.00  0.00     0.159 HD
HETATM   50  H   UNK N   1      24.275  11.890   1.840  0.00  0.00     0.159 HD
ENDBRANCH  44  46
ENDBRANCH  42  44
ENDBRANCH  37  40
ENDBRANCH  20  33
ENDBRANCH  18  20
ENDBRANCH  11  16
ENDBRANCH   8  11
ENDBRANCH   6   7
BRANCH   6  51
HETATM   51  C   UNK N   1      25.777  14.238   5.372  0.00  0.00     0.035 C 
BRANCH  51  52
HETATM   52  C   UNK N   1      25.744  14.234   6.893  0.00  0.00     0.004 C 
BRANCH  52  53
HETATM   53  C   UNK N   1      25.204  12.926   7.462  0.00  0.00     0.020 C 
BRANCH  53  54
HETATM   54  C   UNK N   1      24.673  13.135   8.871  0.00  0.00     0.124 C 
BRANCH  54  55
HETATM   55  N   UNK N   1      23.309  13.620   8.847  0.00  0.00    -0.343 N 
HETATM   56  C   UNK N   1      22.460  13.404   9.882  0.00  0.00     0.313 C 
HETATM   57  O   UNK N   1      22.807  12.771  10.856  0.00  0.00    -0.248 OA
HETATM   58  N   UNK N   1      21.206  13.908   9.822  0.00  0.00    -0.352 N 
HETATM   59  H   UNK N   1      20.430  14.507   9.733  0.00  0.00     0.160 HD
HETATM   60  H   UNK N   1      20.714  13.070   9.980  0.00  0.00     0.160 HD
HETATM   61  H   UNK N   1      22.990  14.118   8.059  0.00  0.00     0.164 HD
ENDBRANCH  54  55
ENDBRANCH  53  54
ENDBRANCH  52  53
ENDBRANCH  51  52
ENDBRANCH   6  51
ENDBRANCH   3   6
ENDBRANCH   1   2
BRANCH   1  62
HETATM   62  C   UNK N   1      29.323  17.215   5.261  0.00  0.00     0.073 C 
BRANCH  62  63
HETATM   63  C   UNK N   1      29.357  17.481   6.754  0.00  0.00    -0.056 A 
HETATM   64  C   UNK N   1      28.163  17.640   7.469  0.00  0.00     0.010 A 
HETATM   65  C   UNK N   1      28.197  17.826   8.861  0.00  0.00     0.037 A 
HETATM   66  C   UNK N   1      29.423  17.853   9.540  0.00  0.00     0.065 A 
HETATM   67  C   UNK N   1      30.610  17.711   8.831  0.00  0.00     0.037 A 
HETATM   68  C   UNK N   1      30.572  17.522   7.455  0.00  0.00     0.010 A 
BRANCH  66  69
HETATM   69  O   UNK N   1      29.461  18.010  10.871  0.00  0.00    -0.361 OA
HETATM   70  H   UNK N   1      28.834  18.497  11.370  0.00  0.00     0.217 HD
ENDBRANCH  66  69
ENDBRANCH  62  63
ENDBRANCH   1  62
BRANCH   1  71
HETATM   71  N   UNK N   1      30.760  15.941   3.627  0.00  0.00    -0.341 N 
HETATM   72  C   UNK N   1      30.007  16.255   2.435  0.00  0.00     0.153 C 
HETATM   73  C   UNK N   1      32.095  15.664   3.514  0.00  0.00     0.245 C 
HETATM   74  O   UNK N   1      32.575  15.588   2.389  0.00  0.00    -0.271 OA
BRANCH  73  75
HETATM   75  C   UNK N   1      33.080  15.474   4.662  0.00  0.00     0.200 C 
BRANCH  75  76
HETATM   76  C   UNK N   1      33.505  16.582   5.631  0.00  0.00     0.199 C 
BRANCH  76  77
HETATM   77  O   UNK N   1      33.371  17.850   5.069  0.00  0.00    -0.398 OA
HETATM   78  H   UNK N   1      34.150  18.343   4.769  0.00  0.00     0.209 HD
ENDBRANCH  76  77
ENDBRANCH  75  76
BRANCH  75  79
HETATM   79  N   UNK N   1      34.223  14.840   4.068  0.00  0.00    -0.344 N 
HETATM   80  C   UNK N   1      34.442  13.513   4.186  0.00  0.00     0.241 C 
HETATM   81  O   UNK N   1      35.267  12.989   3.457  0.00  0.00    -0.271 OA
HETATM   82  H   UNK N   1      34.865  15.387   3.561  0.00  0.00     0.163 HD
BRANCH  80  83
HETATM   83  C   UNK N   1      33.691  12.665   5.190  0.00  0.00     0.180 C 
BRANCH  83  84
HETATM   84  C   UNK N   1      32.682  11.755   4.463  0.00  0.00     0.074 C 
BRANCH  84  85
HETATM   85  C   UNK N   1      32.115  10.636   5.285  0.00  0.00    -0.040 A 
HETATM   86  C   UNK N   1      32.921   9.899   6.157  0.00  0.00     0.010 A 
HETATM   87  C   UNK N   1      32.355   8.875   6.921  0.00  0.00     0.018 A 
HETATM   88  C   UNK N   1      30.990   8.606   6.802  0.00  0.00     0.087 A 
HETATM   89  N   UNK N   1      30.223   9.333   5.945  0.00  0.00    -0.375 N 
HETATM   90  C   UNK N   1      30.755  10.332   5.191  0.00  0.00     0.094 A 
ATOM     91  HN  UNK N   1      29.227   9.125   5.868  1.00  0.00     0.164 HD
ENDBRANCH  84  85
ENDBRANCH  83  84
BRANCH  83  92
HETATM   92  N   UNK N   1      33.038  13.485   6.205  0.00  0.00    -0.346 N 
HETATM   93  C   UNK N   1      33.189  13.394   7.556  0.00  0.00     0.241 C 
HETATM   94  O   UNK N   1      32.479  14.079   8.272  0.00  0.00    -0.271 OA
HETATM   95  H   UNK N   1      32.423  14.180   5.878  0.00  0.00     0.163 HD
BRANCH  93  96
HETATM   96  C   UNK N   1      34.143  12.439   8.214  0.00  0.00     0.180 C 
BRANCH  96  97
HETATM   97  C   UNK N   1      33.938  11.939   9.653  0.00  0.00     0.073 C 
BRANCH  97  98
HETATM   98  C   UNK N   1      34.085  10.467   9.879  0.00  0.00    -0.056 A 
HETATM   99  C   UNK N   1      35.146   9.776   9.277  0.00  0.00     0.009 A 
HETATM  100  C   UNK N   1      35.337   8.414   9.541  0.00  0.00     0.024 A 
HETATM  101  C   UNK N   1      34.474   7.743  10.413  0.00  0.00     0.034 A 
HETATM  102  C   UNK N   1      33.425   8.433  11.024  0.00  0.00     0.024 A 
HETATM  103 Cl   UNK N   1      34.709   6.040  10.743  0.00  0.00    -0.084 Cl
HETATM  104  C   UNK N   1      33.239   9.795  10.766  0.00  0.00     0.009 A 
ENDBRANCH  97  98
ENDBRANCH  96  97
BRANCH  96 105
HETATM  105  N   UNK N   1      35.467  12.382   7.652  0.00  0.00    -0.346 N 
HETATM  106  C   UNK N   1      36.485  13.110   8.131  0.00  0.00     0.241 C 
HETATM  107  O   UNK N   1      37.602  12.975   7.654  0.00  0.00    -0.271 OA
HETATM  108  H   UNK N   1      35.631  11.786   6.885  0.00  0.00     0.163 HD
BRANCH 106 109
HETATM  109  C   UNK N   1      36.228  14.107   9.211  0.00  0.00     0.180 C 
BRANCH 109 110
HETATM  110  C   UNK N   1      37.098  14.137  10.463  0.00  0.00     0.073 C 
BRANCH 110 111
HETATM  111  C   UNK N   1      36.863  12.949  11.309  0.00  0.00    -0.055 A 
HETATM  112  C   UNK N   1      37.709  11.848  11.164  0.00  0.00     0.008 A 
HETATM  113  C   UNK N   1      37.471  10.682  11.887  0.00  0.00     0.013 A 
HETATM  114  C   UNK N   1      36.386  10.616  12.761  0.00  0.00    -0.026 A 
HETATM  115  C   UNK N   1      36.127   9.436  13.460  0.00  0.00     0.012 A 
HETATM  116  C   UNK N   1      35.542  11.738  12.932  0.00  0.00    -0.025 A 
HETATM  117  C   UNK N   1      35.036   9.367  14.330  0.00  0.00     0.001 A 
HETATM  118  C   UNK N   1      34.207  10.481  14.509  0.00  0.00     0.001 A 
HETATM  119  C   UNK N   1      34.459  11.667  13.811  0.00  0.00     0.012 A 
HETATM  120  C   UNK N   1      35.784  12.903  12.200  0.00  0.00     0.019 A 
ENDBRANCH 110 111
ENDBRANCH 109 110
BRANCH 109 121
HETATM  121  N   UNK N   1      35.624  15.344   8.794  0.00  0.00    -0.348 N 
HETATM  122  C   UNK N   1      34.759  15.993   9.610  0.00  0.00     0.214 C 
HETATM  123  O   UNK N   1      34.459  15.525  10.700  0.00  0.00    -0.274 OA
HETATM  124  C   UNK N   1      34.168  17.287   9.181  0.00  0.00     0.117 C 
HETATM  125  H   UNK N   1      35.841  15.722   7.912  0.00  0.00     0.163 HD
ENDBRANCH 109 121
ENDBRANCH 106 109
ENDBRANCH  96 105
ENDBRANCH  93  96
ENDBRANCH  83  92
ENDBRANCH  80  83
ENDBRANCH  75  79
ENDBRANCH  73  75
ENDBRANCH   1  71
TORSDOF 42
ENDMDL
MODEL 5
REMARK VINA RESULT:      -7.6      2.599      5.406
REMARK WARNING: 32 MAX_TORS EXCEEDED!!!
REMARK  42 active torsions:
REMARK  status: ('A' for Active; 'I' for Inactive)
REMARK    1  A    between atoms: C_2  and  C_3 
REMARK    2  A    between atoms: C_3  and  C_4 
REMARK    3  A    between atoms: C_4  and  C_5 
REMARK    4  A    between atoms: C_5  and  C_6 
REMARK    5  A    between atoms: C_5  and  N_33 
REMARK       I    between atoms: C_6  and  N_8 
REMARK    6  A    between atoms: C_9  and  N_8 
REMARK    7  A    between atoms: C_9  and  C_10 
REMARK    8  A    between atoms: C_9  and  C_18 
REMARK    9  A    between atoms: C_10  and  C_11 
REMARK   10  A    between atoms: C_11  and  C_12 
REMARK   11  A    between atoms: C_12  and  N_13 
REMARK       I    between atoms: N_13  and  C_14 
REMARK       I    between atoms: C_14  and  N_17 
REMARK       I    between atoms: C_18  and  N_20 
REMARK   12  A    between atoms: C_24  and  C_25 
REMARK       I    between atoms: C_25  and  N_27 
REMARK   13  A    between atoms: N_27  and  C_28 
REMARK   14  A    between atoms: C_28  and  C_30 
REMARK       I    between atoms: C_30  and  N_32 
REMARK       I    between atoms: N_33  and  C_34 
REMARK   15  A    between atoms: C_34  and  C_36 
REMARK   16  A    between atoms: C_36  and  C_37 
REMARK   17  A    between atoms: C_36  and  N_45 
REMARK   18  A    between atoms: C_37  and  C_38 
REMARK   19  A    between atoms: C_38  and  C_39 
REMARK   20  A    between atoms: C_39  and  C_40 
REMARK   21  A    between atoms: C_40  and  N_41 
REMARK       I    between atoms: N_41  and  C_42 
REMARK       I    between atoms: C_42  and  N_44 
REMARK       I    between atoms: N_45  and  C_46 
REMARK   22  A    between atoms: C_46  and  C_48 
REMARK   23  A    between atoms: C_48  and  C_49 
REMARK   24  A    between atoms: C_48  and  N_57 
REMARK   25  A    between atoms: C_49  and  C_50 
REMARK   26  A    between atoms: C_53  and  O_56 
REMARK       I    between atoms: N_57  and  C_59 
REMARK   27  A    between atoms: C_59  and  C_61 
REMARK   28  A    between atoms: C_61  and  C_62 
REMARK   29  A    between atoms: C_61  and  N_64 
REMARK   30  A    between atoms: C_62  and  O_63 
REMARK       I    between atoms: N_64  and  C_65 
REMARK   31  A    between atoms: C_65  and  C_67 
REMARK   32  A    between atoms: C_67  and  C_68 
REMARK   33  A    between atoms: C_67  and  N_76 
REMARK   34  A    between atoms: C_68  and  C_69 
REMARK       I    between atoms: N_76  and  C_77 
REMARK   35  A    between atoms: C_77  and  C_79 
REMARK   36  A    between atoms: C_79  and  C_80 
REMARK   37  A    between atoms: C_79  and  N_88 
REMARK   38  A    between atoms: C_80  and  C_81 
REMARK       I    between atoms: N_88  and  C_89 
REMARK   39  A    between atoms: C_89  and  C_91 
REMARK   40  A    between atoms: C_91  and  C_92 
REMARK   41  A    between atoms: C_91  and  N_103 
REMARK   42  A    between atoms: C_92  and  C_93 
REMARK       I    between atoms: N_103  and  C_104 
ROOT
HETATM    1  C   UNK N   1      31.841  15.232   5.986  0.00  0.00     0.183 C 
ENDROOT
BRANCH   1   2
HETATM    2  C   UNK N   1      31.312  13.862   5.642  0.00  0.00     0.241 C 
HETATM    3  N   UNK N   1      30.126  13.646   5.021  0.00  0.00    -0.346 N 
HETATM    4  H   UNK N   1      29.957  12.704   4.788  0.00  0.00     0.163 HD
HETATM    5  O   UNK N   1      31.941  12.886   6.013  0.00  0.00    -0.271 OA
BRANCH   3   6
HETATM    6  C   UNK N   1      29.065  14.554   4.639  0.00  0.00     0.176 C 
BRANCH   6   7
HETATM    7  C   UNK N   1      29.226  15.233   3.311  0.00  0.00     0.241 C 
HETATM    8  N   UNK N   1      28.540  16.359   3.013  0.00  0.00    -0.346 N 
HETATM    9  H   UNK N   1      28.579  16.686   2.085  0.00  0.00     0.163 HD
HETATM   10  O   UNK N   1      29.974  14.756   2.472  0.00  0.00    -0.271 OA
BRANCH   8  11
HETATM   11  C   UNK N   1      27.750  17.119   3.959  0.00  0.00     0.176 C 
BRANCH  11  12
HETATM   12  C   UNK N   1      28.152  18.600   3.889  0.00  0.00     0.035 C 
BRANCH  12  13
HETATM   13  C   UNK N   1      27.969  19.349   5.209  0.00  0.00     0.002 C 
BRANCH  13  14
HETATM   14  C   UNK N   1      27.077  20.568   5.036  0.00  0.00    -0.004 C 
HETATM   15  C   UNK N   1      27.105  21.407   6.296  0.00  0.00     0.005 C 
ENDBRANCH  13  14
ENDBRANCH  12  13
ENDBRANCH  11  12
BRANCH  11  16
HETATM   16  C   UNK N   1      26.275  17.012   3.757  0.00  0.00     0.241 C 
HETATM   17  O   UNK N   1      25.854  16.725   2.645  0.00  0.00    -0.271 OA
HETATM   18  N   UNK N   1      25.455  16.991   4.839  0.00  0.00    -0.346 N 
HETATM   19  H   UNK N   1      25.752  17.420   5.673  0.00  0.00     0.163 HD
BRANCH  18  20
HETATM   20  C   UNK N   1      24.158  16.359   4.801  0.00  0.00     0.176 C 
BRANCH  20  21
HETATM   21  C   UNK N   1      24.040  14.970   5.410  0.00  0.00     0.036 C 
BRANCH  21  22
HETATM   22  C   UNK N   1      24.551  14.859   6.837  0.00  0.00     0.023 C 
BRANCH  22  23
HETATM   23  C   UNK N   1      24.431  13.426   7.349  0.00  0.00     0.138 C 
BRANCH  23  24
HETATM   24  N   UNK N   1      25.131  13.240   8.605  0.00  0.00    -0.227 N 
HETATM   25  C   UNK N   1      24.476  12.937   9.829  0.00  0.00     0.665 C 
HETATM   26  N   UNK N   1      23.211  12.733   9.864  0.00  0.00    -0.235 N 
HETATM   27  N   UNK N   1      25.230  12.845  11.018  0.00  0.00    -0.235 N 
HETATM   28  H   UNK N   1      22.605  13.295   9.330  0.00  0.00     0.174 HD
ATOM     29  HN  UNK N   1      22.832  11.987  10.446  1.00  0.00     0.174 HD
HETATM   30  H   UNK N   1      25.012  12.648  11.957  0.00  0.00     0.174 HD
HETATM   31  H   UNK N   1      26.190  13.017  10.877  0.00  0.00     0.174 HD
HETATM   32  H   UNK N   1      26.112  13.329   8.610  0.00  0.00     0.177 HD
ENDBRANCH  23  24
ENDBRANCH  22  23
ENDBRANCH  21  22
ENDBRANCH  20  21
BRANCH  20  33
HETATM   33  C   UNK N   1      23.100  17.422   4.909  0.00  0.00     0.243 C 
HETATM   34  O   UNK N   1      23.307  18.430   5.571  0.00  0.00    -0.271 OA
HETATM   35  N   UNK N   1      22.038  17.360   4.064  0.00  0.00    -0.337 N 
HETATM   36  C   UNK N   1      21.192  18.487   3.787  0.00  0.00     0.127 C 
HETATM   37  C   UNK N   1      21.685  16.156   3.364  0.00  0.00     0.179 C 
HETATM   38  C   UNK N   1      20.278  18.012   2.660  0.00  0.00     0.022 C 
HETATM   39  C   UNK N   1      20.812  16.647   2.220  0.00  0.00     0.037 C 
BRANCH  37  40
HETATM   40  C   UNK N   1      20.822  15.375   4.313  0.00  0.00     0.241 C 
HETATM   41  O   UNK N   1      20.278  14.341   3.957  0.00  0.00    -0.271 OA
HETATM   42  N   UNK N   1      20.708  15.849   5.583  0.00  0.00    -0.346 N 
HETATM   43  H   UNK N   1      21.249  16.650   5.770  0.00  0.00     0.163 HD
BRANCH  42  44
HETATM   44  C   UNK N   1      19.927  15.381   6.707  0.00  0.00     0.172 C 
HETATM   45  C   UNK N   1      19.489  16.475   7.668  0.00  0.00     0.042 C 
BRANCH  44  46
HETATM   46  C   UNK N   1      20.704  14.307   7.423  0.00  0.00     0.237 C 
HETATM   47  O   UNK N   1      21.215  14.547   8.503  0.00  0.00    -0.271 OA
HETATM   48  N   UNK N   1      20.813  13.068   6.896  0.00  0.00    -0.368 N 
HETATM   49  H   UNK N   1      21.398  12.400   7.322  0.00  0.00     0.159 HD
HETATM   50  H   UNK N   1      20.308  12.832   6.084  0.00  0.00     0.159 HD
ENDBRANCH  44  46
ENDBRANCH  42  44
ENDBRANCH  37  40
ENDBRANCH  20  33
ENDBRANCH  18  20
ENDBRANCH  11  16
ENDBRANCH   8  11
ENDBRANCH   6   7
BRANCH   6  51
HETATM   51  C   UNK N   1      27.744  13.780   4.612  0.00  0.00     0.035 C 
BRANCH  51  52
HETATM   52  C   UNK N   1      27.883  12.356   4.094  0.00  0.00     0.004 C 
BRANCH  52  53
HETATM   53  C   UNK N   1      27.300  12.183   2.696  0.00  0.00     0.020 C 
BRANCH  53  54
HETATM   54  C   UNK N   1      26.243  13.241   2.422  0.00  0.00     0.124 C 
BRANCH  54  55
HETATM   55  N   UNK N   1      24.916  12.735   2.703  0.00  0.00    -0.343 N 
HETATM   56  C   UNK N   1      23.812  13.287   2.142  0.00  0.00     0.313 C 
HETATM   57  O   UNK N   1      23.896  14.245   1.404  0.00  0.00    -0.248 OA
HETATM   58  N   UNK N   1      22.598  12.755   2.413  0.00  0.00    -0.352 N 
HETATM   59  H   UNK N   1      21.837  12.138   2.523  0.00  0.00     0.160 HD
HETATM   60  H   UNK N   1      22.156  13.575   2.731  0.00  0.00     0.160 HD
HETATM   61  H   UNK N   1      24.812  11.972   3.317  0.00  0.00     0.164 HD
ENDBRANCH  54  55
ENDBRANCH  53  54
ENDBRANCH  52  53
ENDBRANCH  51  52
ENDBRANCH   6  51
ENDBRANCH   3   6
ENDBRANCH   1   2
BRANCH   1  62
HETATM   62  C   UNK N   1      31.068  16.557   5.754  0.00  0.00     0.073 C 
BRANCH  62  63
HETATM   63  C   UNK N   1      30.613  17.217   7.041  0.00  0.00    -0.056 A 
HETATM   64  C   UNK N   1      29.313  17.009   7.519  0.00  0.00     0.010 A 
HETATM   65  C   UNK N   1      28.914  17.574   8.741  0.00  0.00     0.037 A 
HETATM   66  C   UNK N   1      29.814  18.348   9.488  0.00  0.00     0.065 A 
HETATM   67  C   UNK N   1      31.100  18.569   9.010  0.00  0.00     0.037 A 
HETATM   68  C   UNK N   1      31.491  18.004   7.802  0.00  0.00     0.010 A 
BRANCH  66  69
HETATM   69  O   UNK N   1      29.445  18.873  10.666  0.00  0.00    -0.361 OA
HETATM   70  H   UNK N   1      29.194  19.766  10.797  0.00  0.00     0.217 HD
ENDBRANCH  66  69
ENDBRANCH  62  63
ENDBRANCH   1  62
BRANCH   1  71
HETATM   71  N   UNK N   1      33.273  15.340   5.879  0.00  0.00    -0.341 N 
HETATM   72  C   UNK N   1      33.804  15.591   4.560  0.00  0.00     0.153 C 
HETATM   73  C   UNK N   1      34.143  15.167   6.921  0.00  0.00     0.245 C 
HETATM   74  O   UNK N   1      35.342  15.126   6.671  0.00  0.00    -0.271 OA
BRANCH  73  75
HETATM   75  C   UNK N   1      33.777  15.058   8.397  0.00  0.00     0.200 C 
BRANCH  75  76
HETATM   76  C   UNK N   1      32.398  14.637   8.919  0.00  0.00     0.199 C 
BRANCH  76  77
HETATM   77  O   UNK N   1      32.112  15.201  10.160  0.00  0.00    -0.398 OA
HETATM   78  H   UNK N   1      31.263  15.033  10.596  0.00  0.00     0.209 HD
ENDBRANCH  76  77
ENDBRANCH  75  76
BRANCH  75  79
HETATM   79  N   UNK N   1      34.188  16.307   8.975  0.00  0.00    -0.344 N 
HETATM   80  C   UNK N   1      35.151  16.372   9.917  0.00  0.00     0.241 C 
HETATM   81  O   UNK N   1      35.641  17.457  10.180  0.00  0.00    -0.271 OA
HETATM   82  H   UNK N   1      33.755  17.138   8.674  0.00  0.00     0.163 HD
BRANCH  80  83
HETATM   83  C   UNK N   1      35.640  15.139  10.648  0.00  0.00     0.180 C 
BRANCH  83  84
HETATM   84  C   UNK N   1      35.300  15.243  12.147  0.00  0.00     0.074 C 
BRANCH  84  85
HETATM   85  C   UNK N   1      35.684  14.055  12.978  0.00  0.00    -0.040 A 
HETATM   86  C   UNK N   1      35.116  12.799  12.752  0.00  0.00     0.010 A 
HETATM   87  C   UNK N   1      35.511  11.711  13.535  0.00  0.00     0.018 A 
HETATM   88  C   UNK N   1      36.472  11.897  14.530  0.00  0.00     0.087 A 
HETATM   89  N   UNK N   1      37.013  13.128  14.737  0.00  0.00    -0.375 N 
HETATM   90  C   UNK N   1      36.640  14.201  13.988  0.00  0.00     0.094 A 
ATOM     91  HN  UNK N   1      37.713  13.250  15.468  1.00  0.00     0.164 HD
ENDBRANCH  84  85
ENDBRANCH  83  84
BRANCH  83  92
HETATM   92  N   UNK N   1      37.067  14.919  10.435  0.00  0.00    -0.346 N 
HETATM   93  C   UNK N   1      37.654  13.827   9.871  0.00  0.00     0.241 C 
HETATM   94  O   UNK N   1      38.871  13.749   9.876  0.00  0.00    -0.271 OA
HETATM   95  H   UNK N   1      37.670  15.638  10.731  0.00  0.00     0.163 HD
BRANCH  93  96
HETATM   96  C   UNK N   1      36.875  12.675   9.303  0.00  0.00     0.180 C 
BRANCH  96  97
HETATM   97  C   UNK N   1      36.914  11.273   9.929  0.00  0.00     0.073 C 
BRANCH  97  98
HETATM   98  C   UNK N   1      35.629  10.505   9.936  0.00  0.00    -0.056 A 
HETATM   99  C   UNK N   1      35.472   9.425  10.815  0.00  0.00     0.009 A 
HETATM  100  C   UNK N   1      34.249   8.746  10.883  0.00  0.00     0.024 A 
HETATM  101  C   UNK N   1      33.179   9.152  10.079  0.00  0.00     0.034 A 
HETATM  102  C   UNK N   1      33.329  10.237   9.213  0.00  0.00     0.024 A 
HETATM  103 Cl   UNK N   1      31.649   8.305  10.159  0.00  0.00    -0.084 Cl
HETATM  104  C   UNK N   1      34.549  10.919   9.151  0.00  0.00     0.009 A 
ENDBRANCH  97  98
ENDBRANCH  96  97
BRANCH  96 105
HETATM  105  N   UNK N   1      36.485  12.799   7.922  0.00  0.00    -0.346 N 
HETATM  106  C   UNK N   1      37.168  12.219   6.926  0.00  0.00     0.241 C 
HETATM  107  O   UNK N   1      36.755  12.306   5.779  0.00  0.00    -0.271 OA
HETATM  108  H   UNK N   1      35.685  13.329   7.702  0.00  0.00     0.163 HD
BRANCH 106 109
HETATM  109  C   UNK N   1      38.448  11.514   7.229  0.00  0.00     0.180 C 
BRANCH 109 110
HETATM  110  C   UNK N   1      38.725  10.128   6.658  0.00  0.00     0.073 C 
BRANCH 110 111
HETATM  111  C   UNK N   1      37.821   9.116   7.242  0.00  0.00    -0.055 A 
HETATM  112  C   UNK N   1      38.303   8.300   8.267  0.00  0.00     0.008 A 
HETATM  113  C   UNK N   1      37.505   7.284   8.787  0.00  0.00     0.013 A 
HETATM  114  C   UNK N   1      36.220   7.084   8.285  0.00  0.00    -0.026 A 
HETATM  115  C   UNK N   1      35.434   6.044   8.783  0.00  0.00     0.012 A 
HETATM  116  C   UNK N   1      35.717   7.925   7.265  0.00  0.00    -0.025 A 
HETATM  117  C   UNK N   1      34.148   5.838   8.274  0.00  0.00     0.001 A 
HETATM  118  C   UNK N   1      33.644   6.678   7.274  0.00  0.00     0.001 A 
HETATM  119  C   UNK N   1      34.427   7.721   6.769  0.00  0.00     0.012 A 
HETATM  120  C   UNK N   1      36.523   8.940   6.745  0.00  0.00     0.019 A 
ENDBRANCH 110 111
ENDBRANCH 109 110
BRANCH 109 121
HETATM  121  N   UNK N   1      39.582  12.357   7.500  0.00  0.00    -0.348 N 
HETATM  122  C   UNK N   1      40.276  12.918   6.482  0.00  0.00     0.214 C 
HETATM  123  O   UNK N   1      39.967  12.696   5.319  0.00  0.00    -0.274 OA
HETATM  124  C   UNK N   1      41.425  13.814   6.776  0.00  0.00     0.117 C 
HETATM  125  H   UNK N   1      39.854  12.528   8.431  0.00  0.00     0.163 HD
ENDBRANCH 109 121
ENDBRANCH 106 109
ENDBRANCH  96 105
ENDBRANCH  93  96
ENDBRANCH  83  92
ENDBRANCH  80  83
ENDBRANCH  75  79
ENDBRANCH  73  75
ENDBRANCH   1  71
TORSDOF 42
ENDMDL
MODEL 6
REMARK VINA RESULT:      -7.6      2.643      4.892
REMARK WARNING: 32 MAX_TORS EXCEEDED!!!
REMARK  42 active torsions:
REMARK  status: ('A' for Active; 'I' for Inactive)
REMARK    1  A    between atoms: C_2  and  C_3 
REMARK    2  A    between atoms: C_3  and  C_4 
REMARK    3  A    between atoms: C_4  and  C_5 
REMARK    4  A    between atoms: C_5  and  C_6 
REMARK    5  A    between atoms: C_5  and  N_33 
REMARK       I    between atoms: C_6  and  N_8 
REMARK    6  A    between atoms: C_9  and  N_8 
REMARK    7  A    between atoms: C_9  and  C_10 
REMARK    8  A    between atoms: C_9  and  C_18 
REMARK    9  A    between atoms: C_10  and  C_11 
REMARK   10  A    between atoms: C_11  and  C_12 
REMARK   11  A    between atoms: C_12  and  N_13 
REMARK       I    between atoms: N_13  and  C_14 
REMARK       I    between atoms: C_14  and  N_17 
REMARK       I    between atoms: C_18  and  N_20 
REMARK   12  A    between atoms: C_24  and  C_25 
REMARK       I    between atoms: C_25  and  N_27 
REMARK   13  A    between atoms: N_27  and  C_28 
REMARK   14  A    between atoms: C_28  and  C_30 
REMARK       I    between atoms: C_30  and  N_32 
REMARK       I    between atoms: N_33  and  C_34 
REMARK   15  A    between atoms: C_34  and  C_36 
REMARK   16  A    between atoms: C_36  and  C_37 
REMARK   17  A    between atoms: C_36  and  N_45 
REMARK   18  A    between atoms: C_37  and  C_38 
REMARK   19  A    between atoms: C_38  and  C_39 
REMARK   20  A    between atoms: C_39  and  C_40 
REMARK   21  A    between atoms: C_40  and  N_41 
REMARK       I    between atoms: N_41  and  C_42 
REMARK       I    between atoms: C_42  and  N_44 
REMARK       I    between atoms: N_45  and  C_46 
REMARK   22  A    between atoms: C_46  and  C_48 
REMARK   23  A    between atoms: C_48  and  C_49 
REMARK   24  A    between atoms: C_48  and  N_57 
REMARK   25  A    between atoms: C_49  and  C_50 
REMARK   26  A    between atoms: C_53  and  O_56 
REMARK       I    between atoms: N_57  and  C_59 
REMARK   27  A    between atoms: C_59  and  C_61 
REMARK   28  A    between atoms: C_61  and  C_62 
REMARK   29  A    between atoms: C_61  and  N_64 
REMARK   30  A    between atoms: C_62  and  O_63 
REMARK       I    between atoms: N_64  and  C_65 
REMARK   31  A    between atoms: C_65  and  C_67 
REMARK   32  A    between atoms: C_67  and  C_68 
REMARK   33  A    between atoms: C_67  and  N_76 
REMARK   34  A    between atoms: C_68  and  C_69 
REMARK       I    between atoms: N_76  and  C_77 
REMARK   35  A    between atoms: C_77  and  C_79 
REMARK   36  A    between atoms: C_79  and  C_80 
REMARK   37  A    between atoms: C_79  and  N_88 
REMARK   38  A    between atoms: C_80  and  C_81 
REMARK       I    between atoms: N_88  and  C_89 
REMARK   39  A    between atoms: C_89  and  C_91 
REMARK   40  A    between atoms: C_91  and  C_92 
REMARK   41  A    between atoms: C_91  and  N_103 
REMARK   42  A    between atoms: C_92  and  C_93 
REMARK       I    between atoms: N_103  and  C_104 
ROOT
HETATM    1  C   UNK N   1      31.864  15.190   5.832  0.00  0.00     0.183 C 
ENDROOT
BRANCH   1   2
HETATM    2  C   UNK N   1      31.520  13.786   5.401  0.00  0.00     0.241 C 
HETATM    3  N   UNK N   1      30.309  13.423   4.911  0.00  0.00    -0.346 N 
HETATM    4  H   UNK N   1      30.264  12.492   4.594  0.00  0.00     0.163 HD
HETATM    5  O   UNK N   1      32.346  12.906   5.576  0.00  0.00    -0.271 OA
BRANCH   3   6
HETATM    6  C   UNK N   1      29.072  14.161   4.771  0.00  0.00     0.176 C 
BRANCH   6   7
HETATM    7  C   UNK N   1      28.893  14.907   3.483  0.00  0.00     0.241 C 
HETATM    8  N   UNK N   1      28.079  15.984   3.404  0.00  0.00    -0.346 N 
HETATM    9  H   UNK N   1      27.893  16.353   2.510  0.00  0.00     0.163 HD
HETATM   10  O   UNK N   1      29.474  14.531   2.477  0.00  0.00    -0.271 OA
BRANCH   8  11
HETATM   11  C   UNK N   1      27.459  16.634   4.540  0.00  0.00     0.176 C 
BRANCH  11  12
HETATM   12  C   UNK N   1      27.464  18.155   4.324  0.00  0.00     0.035 C 
BRANCH  12  13
HETATM   13  C   UNK N   1      26.902  18.944   5.507  0.00  0.00     0.002 C 
BRANCH  13  14
HETATM   14  C   UNK N   1      27.864  20.032   5.956  0.00  0.00    -0.004 C 
HETATM   15  C   UNK N   1      27.136  21.358   6.039  0.00  0.00     0.005 C 
ENDBRANCH  13  14
ENDBRANCH  12  13
ENDBRANCH  11  12
BRANCH  11  16
HETATM   16  C   UNK N   1      26.060  16.193   4.814  0.00  0.00     0.241 C 
HETATM   17  O   UNK N   1      25.712  16.034   5.976  0.00  0.00    -0.271 OA
HETATM   18  N   UNK N   1      25.146  16.213   3.810  0.00  0.00    -0.346 N 
HETATM   19  H   UNK N   1      25.456  16.132   2.880  0.00  0.00     0.163 HD
BRANCH  18  20
HETATM   20  C   UNK N   1      23.733  16.350   4.067  0.00  0.00     0.176 C 
BRANCH  20  21
HETATM   21  C   UNK N   1      23.184  17.761   4.223  0.00  0.00     0.036 C 
BRANCH  21  22
HETATM   22  C   UNK N   1      22.337  17.976   5.466  0.00  0.00     0.023 C 
BRANCH  22  23
HETATM   23  C   UNK N   1      20.870  17.652   5.190  0.00  0.00     0.138 C 
BRANCH  23  24
HETATM   24  N   UNK N   1      20.457  18.098   3.874  0.00  0.00    -0.227 N 
HETATM   25  C   UNK N   1      19.858  17.243   2.911  0.00  0.00     0.665 C 
HETATM   26  N   UNK N   1      19.579  16.025   3.197  0.00  0.00    -0.235 N 
HETATM   27  N   UNK N   1      19.553  17.745   1.627  0.00  0.00    -0.235 N 
HETATM   28  H   UNK N   1      20.207  15.485   3.727  0.00  0.00     0.174 HD
ATOM     29  HN  UNK N   1      18.703  15.615   2.873  1.00  0.00     0.174 HD
HETATM   30  H   UNK N   1      19.145  17.362   0.818  0.00  0.00     0.174 HD
HETATM   31  H   UNK N   1      19.807  18.690   1.516  0.00  0.00     0.174 HD
HETATM   32  H   UNK N   1      20.600  19.043   3.636  0.00  0.00     0.177 HD
ENDBRANCH  23  24
ENDBRANCH  22  23
ENDBRANCH  21  22
ENDBRANCH  20  21
BRANCH  20  33
HETATM   33  C   UNK N   1      23.006  15.232   3.372  0.00  0.00     0.243 C 
HETATM   34  O   UNK N   1      22.713  15.331   2.189  0.00  0.00    -0.271 OA
HETATM   35  N   UNK N   1      22.917  14.033   4.005  0.00  0.00    -0.337 N 
HETATM   36  C   UNK N   1      22.621  12.806   3.319  0.00  0.00     0.127 C 
HETATM   37  C   UNK N   1      23.129  13.894   5.420  0.00  0.00     0.179 C 
HETATM   38  C   UNK N   1      22.815  11.720   4.373  0.00  0.00     0.022 C 
HETATM   39  C   UNK N   1      23.420  12.413   5.597  0.00  0.00     0.037 C 
BRANCH  37  40
HETATM   40  C   UNK N   1      21.803  14.194   6.058  0.00  0.00     0.241 C 
HETATM   41  O   UNK N   1      20.783  14.240   5.389  0.00  0.00    -0.271 OA
HETATM   42  N   UNK N   1      21.788  14.372   7.407  0.00  0.00    -0.346 N 
HETATM   43  H   UNK N   1      22.660  14.240   7.845  0.00  0.00     0.163 HD
BRANCH  42  44
HETATM   44  C   UNK N   1      20.713  14.723   8.309  0.00  0.00     0.172 C 
HETATM   45  C   UNK N   1      20.609  16.208   8.617  0.00  0.00     0.042 C 
BRANCH  44  46
HETATM   46  C   UNK N   1      20.859  13.915   9.573  0.00  0.00     0.237 C 
HETATM   47  O   UNK N   1      19.866  13.554  10.179  0.00  0.00    -0.271 OA
HETATM   48  N   UNK N   1      22.081  13.556  10.023  0.00  0.00    -0.368 N 
HETATM   49  H   UNK N   1      22.174  13.109  10.896  0.00  0.00     0.159 HD
HETATM   50  H   UNK N   1      22.881  13.741   9.480  0.00  0.00     0.159 HD
ENDBRANCH  44  46
ENDBRANCH  42  44
ENDBRANCH  37  40
ENDBRANCH  20  33
ENDBRANCH  18  20
ENDBRANCH  11  16
ENDBRANCH   8  11
ENDBRANCH   6   7
BRANCH   6  51
HETATM   51  C   UNK N   1      27.900  13.185   4.913  0.00  0.00     0.035 C 
BRANCH  51  52
HETATM   52  C   UNK N   1      28.245  11.758   4.516  0.00  0.00     0.004 C 
BRANCH  52  53
HETATM   53  C   UNK N   1      27.187  11.130   3.615  0.00  0.00     0.020 C 
BRANCH  53  54
HETATM   54  C   UNK N   1      27.220  11.761   2.232  0.00  0.00     0.124 C 
BRANCH  54  55
HETATM   55  N   UNK N   1      28.566  11.775   1.699  0.00  0.00    -0.343 N 
HETATM   56  C   UNK N   1      28.942  10.942   0.697  0.00  0.00     0.313 C 
HETATM   57  O   UNK N   1      28.167  10.136   0.228  0.00  0.00    -0.248 OA
HETATM   58  N   UNK N   1      30.203  11.019   0.213  0.00  0.00    -0.352 N 
HETATM   59  H   UNK N   1      31.052  11.338  -0.171  0.00  0.00     0.160 HD
HETATM   60  H   UNK N   1      30.453  10.074   0.331  0.00  0.00     0.160 HD
HETATM   61  H   UNK N   1      29.225  12.403   2.075  0.00  0.00     0.164 HD
ENDBRANCH  54  55
ENDBRANCH  53  54
ENDBRANCH  52  53
ENDBRANCH  51  52
ENDBRANCH   6  51
ENDBRANCH   3   6
ENDBRANCH   1   2
BRANCH   1  62
HETATM   62  C   UNK N   1      30.911  16.407   5.703  0.00  0.00     0.073 C 
BRANCH  62  63
HETATM   63  C   UNK N   1      30.582  17.052   7.036  0.00  0.00    -0.056 A 
HETATM   64  C   UNK N   1      31.512  17.891   7.662  0.00  0.00     0.010 A 
HETATM   65  C   UNK N   1      31.181  18.533   8.867  0.00  0.00     0.037 A 
HETATM   66  C   UNK N   1      29.919  18.338   9.446  0.00  0.00     0.065 A 
HETATM   67  C   UNK N   1      28.999  17.496   8.835  0.00  0.00     0.037 A 
HETATM   68  C   UNK N   1      29.330  16.866   7.641  0.00  0.00     0.010 A 
BRANCH  66  69
HETATM   69  O   UNK N   1      29.590  18.966  10.585  0.00  0.00    -0.361 OA
HETATM   70  H   UNK N   1      30.053  18.880  11.395  0.00  0.00     0.217 HD
ENDBRANCH  66  69
ENDBRANCH  62  63
ENDBRANCH   1  62
BRANCH   1  71
HETATM   71  N   UNK N   1      33.265  15.502   5.714  0.00  0.00    -0.341 N 
HETATM   72  C   UNK N   1      33.721  15.935   4.413  0.00  0.00     0.153 C 
HETATM   73  C   UNK N   1      34.178  15.363   6.723  0.00  0.00     0.245 C 
HETATM   74  O   UNK N   1      35.364  15.508   6.452  0.00  0.00    -0.271 OA
BRANCH  73  75
HETATM   75  C   UNK N   1      33.870  15.080   8.189  0.00  0.00     0.200 C 
BRANCH  75  76
HETATM   76  C   UNK N   1      32.529  14.545   8.705  0.00  0.00     0.199 C 
BRANCH  76  77
HETATM   77  O   UNK N   1      32.126  15.181   9.877  0.00  0.00    -0.398 OA
HETATM   78  H   UNK N   1      32.517  16.028  10.140  0.00  0.00     0.209 HD
ENDBRANCH  76  77
ENDBRANCH  75  76
BRANCH  75  79
HETATM   79  N   UNK N   1      34.250  16.277   8.886  0.00  0.00    -0.344 N 
HETATM   80  C   UNK N   1      35.186  16.266   9.859  0.00  0.00     0.241 C 
HETATM   81  O   UNK N   1      35.656  17.328  10.230  0.00  0.00    -0.271 OA
HETATM   82  H   UNK N   1      33.817  17.127   8.647  0.00  0.00     0.163 HD
BRANCH  80  83
HETATM   83  C   UNK N   1      35.667  14.978  10.492  0.00  0.00     0.180 C 
BRANCH  83  84
HETATM   84  C   UNK N   1      35.165  14.884  11.946  0.00  0.00     0.074 C 
BRANCH  84  85
HETATM   85  C   UNK N   1      35.761  13.775  12.761  0.00  0.00    -0.040 A 
HETATM   86  C   UNK N   1      35.593  12.437  12.396  0.00  0.00     0.010 A 
HETATM   87  C   UNK N   1      36.177  11.431  13.171  0.00  0.00     0.018 A 
HETATM   88  C   UNK N   1      36.923  11.781  14.298  0.00  0.00     0.087 A 
HETATM   89  N   UNK N   1      37.073  13.090  14.639  0.00  0.00    -0.375 N 
HETATM   90  C   UNK N   1      36.510  14.084  13.900  0.00  0.00     0.094 A 
ATOM     91  HN  UNK N   1      37.620  13.331  15.465  1.00  0.00     0.164 HD
ENDBRANCH  84  85
ENDBRANCH  83  84
BRANCH  83  92
HETATM   92  N   UNK N   1      37.119  14.852  10.416  0.00  0.00    -0.346 N 
HETATM   93  C   UNK N   1      37.827  13.933   9.703  0.00  0.00     0.241 C 
HETATM   94  O   UNK N   1      39.038  13.890   9.843  0.00  0.00    -0.271 OA
HETATM   95  H   UNK N   1      37.643  15.502  10.937  0.00  0.00     0.163 HD
BRANCH  93  96
HETATM   96  C   UNK N   1      37.185  12.919   8.801  0.00  0.00     0.180 C 
BRANCH  96  97
HETATM   97  C   UNK N   1      37.180  11.418   9.129  0.00  0.00     0.073 C 
BRANCH  97  98
HETATM   98  C   UNK N   1      35.842  10.757   9.235  0.00  0.00    -0.056 A 
HETATM   99  C   UNK N   1      35.716   9.553   9.939  0.00  0.00     0.009 A 
HETATM  100  C   UNK N   1      34.457   8.964  10.108  0.00  0.00     0.024 A 
HETATM  101  C   UNK N   1      33.320   9.584   9.579  0.00  0.00     0.034 A 
HETATM  102  C   UNK N   1      33.441  10.792   8.889  0.00  0.00     0.024 A 
HETATM  103 Cl   UNK N   1      31.744   8.850   9.786  0.00  0.00    -0.084 Cl
HETATM  104  C   UNK N   1      34.698  11.383   8.727  0.00  0.00     0.009 A 
ENDBRANCH  97  98
ENDBRANCH  96  97
BRANCH  96 105
HETATM  105  N   UNK N   1      37.001  13.321   7.430  0.00  0.00    -0.346 N 
HETATM  106  C   UNK N   1      37.646  12.732   6.414  0.00  0.00     0.241 C 
HETATM  107  O   UNK N   1      37.404  13.072   5.266  0.00  0.00    -0.271 OA
HETATM  108  H   UNK N   1      36.378  14.058   7.232  0.00  0.00     0.163 HD
BRANCH 106 109
HETATM  109  C   UNK N   1      38.682  11.698   6.706  0.00  0.00     0.180 C 
BRANCH 109 110
HETATM  110  C   UNK N   1      38.717  10.390   5.922  0.00  0.00     0.073 C 
BRANCH 110 111
HETATM  111  C   UNK N   1      37.548   9.544   6.239  0.00  0.00    -0.055 A 
HETATM  112  C   UNK N   1      37.749   8.376   6.975  0.00  0.00     0.008 A 
HETATM  113  C   UNK N   1      36.683   7.514   7.225  0.00  0.00     0.013 A 
HETATM  114  C   UNK N   1      35.412   7.822   6.741  0.00  0.00    -0.026 A 
HETATM  115  C   UNK N   1      34.352   6.942   6.962  0.00  0.00     0.012 A 
HETATM  116  C   UNK N   1      35.198   9.019   6.018  0.00  0.00    -0.025 A 
HETATM  117  C   UNK N   1      33.080   7.246   6.470  0.00  0.00     0.001 A 
HETATM  118  C   UNK N   1      32.864   8.436   5.765  0.00  0.00     0.001 A 
HETATM  119  C   UNK N   1      33.922   9.323   5.538  0.00  0.00     0.012 A 
HETATM  120  C   UNK N   1      36.271   9.877   5.767  0.00  0.00     0.019 A 
ENDBRANCH 110 111
ENDBRANCH 109 110
BRANCH 109 121
HETATM  121  N   UNK N   1      39.929  12.188   7.231  0.00  0.00    -0.348 N 
HETATM  122  C   UNK N   1      40.678  11.412   8.049  0.00  0.00     0.214 C 
HETATM  123  O   UNK N   1      40.296  10.296   8.374  0.00  0.00    -0.274 OA
HETATM  124  C   UNK N   1      41.980  11.917   8.558  0.00  0.00     0.117 C 
HETATM  125  H   UNK N   1      40.239  13.092   6.994  0.00  0.00     0.163 HD
ENDBRANCH 109 121
ENDBRANCH 106 109
ENDBRANCH  96 105
ENDBRANCH  93  96
ENDBRANCH  83  92
ENDBRANCH  80  83
ENDBRANCH  75  79
ENDBRANCH  73  75
ENDBRANCH   1  71
TORSDOF 42
ENDMDL
MODEL 7
REMARK VINA RESULT:      -7.6      3.116      4.616
REMARK WARNING: 32 MAX_TORS EXCEEDED!!!
REMARK  42 active torsions:
REMARK  status: ('A' for Active; 'I' for Inactive)
REMARK    1  A    between atoms: C_2  and  C_3 
REMARK    2  A    between atoms: C_3  and  C_4 
REMARK    3  A    between atoms: C_4  and  C_5 
REMARK    4  A    between atoms: C_5  and  C_6 
REMARK    5  A    between atoms: C_5  and  N_33 
REMARK       I    between atoms: C_6  and  N_8 
REMARK    6  A    between atoms: C_9  and  N_8 
REMARK    7  A    between atoms: C_9  and  C_10 
REMARK    8  A    between atoms: C_9  and  C_18 
REMARK    9  A    between atoms: C_10  and  C_11 
REMARK   10  A    between atoms: C_11  and  C_12 
REMARK   11  A    between atoms: C_12  and  N_13 
REMARK       I    between atoms: N_13  and  C_14 
REMARK       I    between atoms: C_14  and  N_17 
REMARK       I    between atoms: C_18  and  N_20 
REMARK   12  A    between atoms: C_24  and  C_25 
REMARK       I    between atoms: C_25  and  N_27 
REMARK   13  A    between atoms: N_27  and  C_28 
REMARK   14  A    between atoms: C_28  and  C_30 
REMARK       I    between atoms: C_30  and  N_32 
REMARK       I    between atoms: N_33  and  C_34 
REMARK   15  A    between atoms: C_34  and  C_36 
REMARK   16  A    between atoms: C_36  and  C_37 
REMARK   17  A    between atoms: C_36  and  N_45 
REMARK   18  A    between atoms: C_37  and  C_38 
REMARK   19  A    between atoms: C_38  and  C_39 
REMARK   20  A    between atoms: C_39  and  C_40 
REMARK   21  A    between atoms: C_40  and  N_41 
REMARK       I    between atoms: N_41  and  C_42 
REMARK       I    between atoms: C_42  and  N_44 
REMARK       I    between atoms: N_45  and  C_46 
REMARK   22  A    between atoms: C_46  and  C_48 
REMARK   23  A    between atoms: C_48  and  C_49 
REMARK   24  A    between atoms: C_48  and  N_57 
REMARK   25  A    between atoms: C_49  and  C_50 
REMARK   26  A    between atoms: C_53  and  O_56 
REMARK       I    between atoms: N_57  and  C_59 
REMARK   27  A    between atoms: C_59  and  C_61 
REMARK   28  A    between atoms: C_61  and  C_62 
REMARK   29  A    between atoms: C_61  and  N_64 
REMARK   30  A    between atoms: C_62  and  O_63 
REMARK       I    between atoms: N_64  and  C_65 
REMARK   31  A    between atoms: C_65  and  C_67 
REMARK   32  A    between atoms: C_67  and  C_68 
REMARK   33  A    between atoms: C_67  and  N_76 
REMARK   34  A    between atoms: C_68  and  C_69 
REMARK       I    between atoms: N_76  and  C_77 
REMARK   35  A    between atoms: C_77  and  C_79 
REMARK   36  A    between atoms: C_79  and  C_80 
REMARK   37  A    between atoms: C_79  and  N_88 
REMARK   38  A    between atoms: C_80  and  C_81 
REMARK       I    between atoms: N_88  and  C_89 
REMARK   39  A    between atoms: C_89  and  C_91 
REMARK   40  A    between atoms: C_91  and  C_92 
REMARK   41  A    between atoms: C_91  and  N_103 
REMARK   42  A    between atoms: C_92  and  C_93 
REMARK       I    between atoms: N_103  and  C_104 
ROOT
HETATM    1  C   UNK N   1      31.492  15.616   5.492  0.00  0.00     0.183 C 
ENDROOT
BRANCH   1   2
HETATM    2  C   UNK N   1      31.210  14.208   5.026  0.00  0.00     0.241 C 
HETATM    3  N   UNK N   1      30.008  13.797   4.554  0.00  0.00    -0.346 N 
HETATM    4  H   UNK N   1      30.003  12.874   4.210  0.00  0.00     0.163 HD
HETATM    5  O   UNK N   1      32.084  13.368   5.154  0.00  0.00    -0.271 OA
BRANCH   3   6
HETATM    6  C   UNK N   1      28.731  14.473   4.466  0.00  0.00     0.176 C 
BRANCH   6   7
HETATM    7  C   UNK N   1      28.370  15.027   3.121  0.00  0.00     0.241 C 
HETATM    8  N   UNK N   1      27.543  16.090   3.000  0.00  0.00    -0.346 N 
HETATM    9  H   UNK N   1      27.233  16.328   2.096  0.00  0.00     0.163 HD
HETATM   10  O   UNK N   1      28.811  14.503   2.110  0.00  0.00    -0.271 OA
BRANCH   8  11
HETATM   11  C   UNK N   1      27.079  16.904   4.104  0.00  0.00     0.176 C 
BRANCH  11  12
HETATM   12  C   UNK N   1      27.092  18.384   3.690  0.00  0.00     0.035 C 
BRANCH  12  13
HETATM   13  C   UNK N   1      27.813  19.293   4.685  0.00  0.00     0.002 C 
BRANCH  13  14
HETATM   14  C   UNK N   1      27.034  20.575   4.931  0.00  0.00    -0.004 C 
HETATM   15  C   UNK N   1      27.070  20.922   6.404  0.00  0.00     0.005 C 
ENDBRANCH  13  14
ENDBRANCH  12  13
ENDBRANCH  11  12
BRANCH  11  16
HETATM   16  C   UNK N   1      25.713  16.556   4.595  0.00  0.00     0.241 C 
HETATM   17  O   UNK N   1      25.554  16.354   5.790  0.00  0.00    -0.271 OA
HETATM   18  N   UNK N   1      24.649  16.708   3.766  0.00  0.00    -0.346 N 
HETATM   19  H   UNK N   1      24.789  16.661   2.793  0.00  0.00     0.163 HD
BRANCH  18  20
HETATM   20  C   UNK N   1      23.316  16.937   4.270  0.00  0.00     0.176 C 
BRANCH  20  21
HETATM   21  C   UNK N   1      22.953  18.361   4.665  0.00  0.00     0.036 C 
BRANCH  21  22
HETATM   22  C   UNK N   1      23.453  19.430   3.707  0.00  0.00     0.023 C 
BRANCH  22  23
HETATM   23  C   UNK N   1      22.291  20.064   2.945  0.00  0.00     0.138 C 
BRANCH  23  24
HETATM   24  N   UNK N   1      21.032  19.406   3.232  0.00  0.00    -0.227 N 
HETATM   25  C   UNK N   1      20.134  18.961   2.226  0.00  0.00     0.665 C 
HETATM   26  N   UNK N   1      20.439  19.056   0.984  0.00  0.00    -0.235 N 
HETATM   27  N   UNK N   1      18.895  18.396   2.597  0.00  0.00    -0.235 N 
HETATM   28  H   UNK N   1      20.894  19.860   0.646  0.00  0.00     0.174 HD
ATOM     29  HN  UNK N   1      20.211  18.295   0.345  1.00  0.00     0.174 HD
HETATM   30  H   UNK N   1      18.133  18.022   2.100  0.00  0.00     0.174 HD
HETATM   31  H   UNK N   1      18.764  18.370   3.573  0.00  0.00     0.174 HD
HETATM   32  H   UNK N   1      20.786  19.260   4.174  0.00  0.00     0.177 HD
ENDBRANCH  23  24
ENDBRANCH  22  23
ENDBRANCH  21  22
ENDBRANCH  20  21
BRANCH  20  33
HETATM   33  C   UNK N   1      22.374  15.982   3.591  0.00  0.00     0.243 C 
HETATM   34  O   UNK N   1      21.834  16.294   2.538  0.00  0.00    -0.271 OA
HETATM   35  N   UNK N   1      22.339  14.695   4.027  0.00  0.00    -0.337 N 
HETATM   36  C   UNK N   1      21.809  13.617   3.239  0.00  0.00     0.127 C 
HETATM   37  C   UNK N   1      22.847  14.307   5.314  0.00  0.00     0.179 C 
HETATM   38  C   UNK N   1      22.151  12.359   4.033  0.00  0.00     0.022 C 
HETATM   39  C   UNK N   1      23.060  12.808   5.179  0.00  0.00     0.037 C 
BRANCH  37  40
HETATM   40  C   UNK N   1      21.721  14.538   6.280  0.00  0.00     0.241 C 
HETATM   41  O   UNK N   1      20.627  14.028   6.099  0.00  0.00    -0.271 OA
HETATM   42  N   UNK N   1      21.986  15.304   7.373  0.00  0.00    -0.346 N 
HETATM   43  H   UNK N   1      22.922  15.601   7.445  0.00  0.00     0.163 HD
BRANCH  42  44
HETATM   44  C   UNK N   1      21.131  15.760   8.446  0.00  0.00     0.172 C 
HETATM   45  C   UNK N   1      20.370  14.653   9.158  0.00  0.00     0.042 C 
BRANCH  44  46
HETATM   46  C   UNK N   1      20.190  16.805   7.905  0.00  0.00     0.237 C 
HETATM   47  O   UNK N   1      20.483  17.985   7.988  0.00  0.00    -0.271 OA
HETATM   48  N   UNK N   1      19.038  16.446   7.297  0.00  0.00    -0.368 N 
HETATM   49  H   UNK N   1      18.386  17.134   7.030  0.00  0.00     0.159 HD
HETATM   50  H   UNK N   1      18.849  15.496   7.121  0.00  0.00     0.159 HD
ENDBRANCH  44  46
ENDBRANCH  42  44
ENDBRANCH  37  40
ENDBRANCH  20  33
ENDBRANCH  18  20
ENDBRANCH  11  16
ENDBRANCH   8  11
ENDBRANCH   6   7
BRANCH   6  51
HETATM   51  C   UNK N   1      27.628  13.493   4.880  0.00  0.00     0.035 C 
BRANCH  51  52
HETATM   52  C   UNK N   1      28.060  12.035   4.832  0.00  0.00     0.004 C 
BRANCH  52  53
HETATM   53  C   UNK N   1      27.656  11.349   3.532  0.00  0.00     0.020 C 
BRANCH  53  54
HETATM   54  C   UNK N   1      28.854  10.665   2.894  0.00  0.00     0.124 C 
BRANCH  54  55
HETATM   55  N   UNK N   1      29.509  11.541   1.945  0.00  0.00    -0.343 N 
HETATM   56  C   UNK N   1      29.248  11.472   0.616  0.00  0.00     0.313 C 
HETATM   57  O   UNK N   1      28.474  10.651   0.172  0.00  0.00    -0.248 OA
HETATM   58  N   UNK N   1      29.864  12.336  -0.223  0.00  0.00    -0.352 N 
HETATM   59  H   UNK N   1      30.204  13.150  -0.662  0.00  0.00     0.160 HD
HETATM   60  H   UNK N   1      30.255  11.675  -0.838  0.00  0.00     0.160 HD
HETATM   61  H   UNK N   1      30.160  12.203   2.273  0.00  0.00     0.164 HD
ENDBRANCH  54  55
ENDBRANCH  53  54
ENDBRANCH  52  53
ENDBRANCH  51  52
ENDBRANCH   6  51
ENDBRANCH   3   6
ENDBRANCH   1   2
BRANCH   1  62
HETATM   62  C   UNK N   1      30.449  16.764   5.499  0.00  0.00     0.073 C 
BRANCH  62  63
HETATM   63  C   UNK N   1      30.171  17.310   6.887  0.00  0.00    -0.056 A 
HETATM   64  C   UNK N   1      28.912  17.131   7.476  0.00  0.00     0.010 A 
HETATM   65  C   UNK N   1      28.677  17.586   8.783  0.00  0.00     0.037 A 
HETATM   66  C   UNK N   1      29.698  18.221   9.504  0.00  0.00     0.065 A 
HETATM   67  C   UNK N   1      30.943  18.413   8.918  0.00  0.00     0.037 A 
HETATM   68  C   UNK N   1      31.173  17.957   7.626  0.00  0.00     0.010 A 
BRANCH  66  69
HETATM   69  O   UNK N   1      29.485  18.639  10.761  0.00  0.00    -0.361 OA
HETATM   70  H   UNK N   1      30.057  18.471  11.484  0.00  0.00     0.217 HD
ENDBRANCH  66  69
ENDBRANCH  62  63
ENDBRANCH   1  62
BRANCH   1  71
HETATM   71  N   UNK N   1      32.852  16.034   5.273  0.00  0.00    -0.341 N 
HETATM   72  C   UNK N   1      33.141  16.642   3.996  0.00  0.00     0.153 C 
HETATM   73  C   UNK N   1      33.875  15.842   6.162  0.00  0.00     0.245 C 
HETATM   74  O   UNK N   1      35.014  16.098   5.794  0.00  0.00    -0.271 OA
BRANCH  73  75
HETATM   75  C   UNK N   1      33.741  15.372   7.607  0.00  0.00     0.200 C 
BRANCH  75  76
HETATM   76  C   UNK N   1      32.512  14.654   8.174  0.00  0.00     0.199 C 
BRANCH  76  77
HETATM   77  O   UNK N   1      32.677  13.271   8.198  0.00  0.00    -0.398 OA
HETATM   78  H   UNK N   1      32.323  12.743   8.930  0.00  0.00     0.209 HD
ENDBRANCH  76  77
ENDBRANCH  75  76
BRANCH  75  79
HETATM   79  N   UNK N   1      34.083  16.518   8.402  0.00  0.00    -0.344 N 
HETATM   80  C   UNK N   1      34.920  16.428   9.457  0.00  0.00     0.241 C 
HETATM   81  O   UNK N   1      35.379  17.454   9.930  0.00  0.00    -0.271 OA
HETATM   82  H   UNK N   1      33.696  17.393   8.172  0.00  0.00     0.163 HD
BRANCH  80  83
HETATM   83  C   UNK N   1      35.307  15.094  10.059  0.00  0.00     0.180 C 
BRANCH  83  84
HETATM   84  C   UNK N   1      34.653  14.931  11.445  0.00  0.00     0.074 C 
BRANCH  84  85
HETATM   85  C   UNK N   1      35.290  13.910  12.341  0.00  0.00    -0.040 A 
HETATM   86  C   UNK N   1      36.024  14.293  13.467  0.00  0.00     0.010 A 
HETATM   87  C   UNK N   1      36.589  13.314  14.288  0.00  0.00     0.018 A 
HETATM   88  C   UNK N   1      36.409  11.966  13.971  0.00  0.00     0.087 A 
HETATM   89  N   UNK N   1      35.693  11.613  12.868  0.00  0.00    -0.375 N 
HETATM   90  C   UNK N   1      35.137  12.551  12.054  0.00  0.00     0.094 A 
ATOM     91  HN  UNK N   1      35.571  10.625  12.648  1.00  0.00     0.164 HD
ENDBRANCH  84  85
ENDBRANCH  83  84
BRANCH  83  92
HETATM   92  N   UNK N   1      36.756  14.935  10.128  0.00  0.00    -0.346 N 
HETATM   93  C   UNK N   1      37.540  14.185   9.304  0.00  0.00     0.241 C 
HETATM   94  O   UNK N   1      38.723  14.065   9.571  0.00  0.00    -0.271 OA
HETATM   95  H   UNK N   1      37.217  15.424  10.847  0.00  0.00     0.163 HD
BRANCH  93  96
HETATM   96  C   UNK N   1      37.005  13.438   8.116  0.00  0.00     0.180 C 
BRANCH  96  97
HETATM   97  C   UNK N   1      37.412  13.787   6.676  0.00  0.00     0.073 C 
BRANCH  97  98
HETATM   98  C   UNK N   1      38.815  13.454   6.276  0.00  0.00    -0.056 A 
HETATM   99  C   UNK N   1      39.093  12.208   5.698  0.00  0.00     0.009 A 
HETATM  100  C   UNK N   1      40.388  11.913   5.251  0.00  0.00     0.024 A 
HETATM  101  C   UNK N   1      41.403  12.866   5.375  0.00  0.00     0.034 A 
HETATM  102  C   UNK N   1      41.125  14.114   5.937  0.00  0.00     0.024 A 
HETATM  103 Cl   UNK N   1      43.023  12.500   4.820  0.00  0.00    -0.084 Cl
HETATM  104  C   UNK N   1      39.830  14.410   6.377  0.00  0.00     0.009 A 
ENDBRANCH  97  98
ENDBRANCH  96  97
BRANCH  96 105
HETATM  105  N   UNK N   1      35.771  12.724   8.324  0.00  0.00    -0.346 N 
HETATM  106  C   UNK N   1      35.736  11.415   8.611  0.00  0.00     0.241 C 
HETATM  107  O   UNK N   1      34.664  10.875   8.839  0.00  0.00    -0.271 OA
HETATM  108  H   UNK N   1      34.921  13.216   8.253  0.00  0.00     0.163 HD
BRANCH 106 109
HETATM  109  C   UNK N   1      37.005  10.629   8.603  0.00  0.00     0.180 C 
BRANCH 109 110
HETATM  110  C   UNK N   1      37.910  10.604   9.830  0.00  0.00     0.073 C 
BRANCH 110 111
HETATM  111  C   UNK N   1      39.282  10.184   9.475  0.00  0.00    -0.055 A 
HETATM  112  C   UNK N   1      39.640   8.848   9.660  0.00  0.00     0.008 A 
HETATM  113  C   UNK N   1      40.946   8.432   9.411  0.00  0.00     0.013 A 
HETATM  114  C   UNK N   1      41.897   9.354   8.974  0.00  0.00    -0.026 A 
HETATM  115  C   UNK N   1      43.213   8.945   8.757  0.00  0.00     0.012 A 
HETATM  116  C   UNK N   1      41.531  10.704   8.759  0.00  0.00    -0.025 A 
HETATM  117  C   UNK N   1      44.168   9.870   8.326  0.00  0.00     0.001 A 
HETATM  118  C   UNK N   1      43.805  11.203   8.101  0.00  0.00     0.001 A 
HETATM  119  C   UNK N   1      42.488  11.621   8.317  0.00  0.00     0.012 A 
HETATM  120  C   UNK N   1      40.221  11.115   9.014  0.00  0.00     0.019 A 
ENDBRANCH 110 111
ENDBRANCH 109 110
BRANCH 109 121
HETATM  121  N   UNK N   1      37.026   9.478   7.741  0.00  0.00    -0.348 N 
HETATM  122  C   UNK N   1      36.653   9.588   6.443  0.00  0.00     0.214 C 
HETATM  123  O   UNK N   1      36.269  10.658   5.993  0.00  0.00    -0.274 OA
HETATM  124  C   UNK N   1      36.712   8.398   5.555  0.00  0.00     0.117 C 
HETATM  125  H   UNK N   1      37.313   8.605   8.095  0.00  0.00     0.163 HD
ENDBRANCH 109 121
ENDBRANCH 106 109
ENDBRANCH  96 105
ENDBRANCH  93  96
ENDBRANCH  83  92
ENDBRANCH  80  83
ENDBRANCH  75  79
ENDBRANCH  73  75
ENDBRANCH   1  71
TORSDOF 42
ENDMDL
MODEL 8
REMARK VINA RESULT:      -7.5      2.076      3.915
REMARK WARNING: 32 MAX_TORS EXCEEDED!!!
REMARK  42 active torsions:
REMARK  status: ('A' for Active; 'I' for Inactive)
REMARK    1  A    between atoms: C_2  and  C_3 
REMARK    2  A    between atoms: C_3  and  C_4 
REMARK    3  A    between atoms: C_4  and  C_5 
REMARK    4  A    between atoms: C_5  and  C_6 
REMARK    5  A    between atoms: C_5  and  N_33 
REMARK       I    between atoms: C_6  and  N_8 
REMARK    6  A    between atoms: C_9  and  N_8 
REMARK    7  A    between atoms: C_9  and  C_10 
REMARK    8  A    between atoms: C_9  and  C_18 
REMARK    9  A    between atoms: C_10  and  C_11 
REMARK   10  A    between atoms: C_11  and  C_12 
REMARK   11  A    between atoms: C_12  and  N_13 
REMARK       I    between atoms: N_13  and  C_14 
REMARK       I    between atoms: C_14  and  N_17 
REMARK       I    between atoms: C_18  and  N_20 
REMARK   12  A    between atoms: C_24  and  C_25 
REMARK       I    between atoms: C_25  and  N_27 
REMARK   13  A    between atoms: N_27  and  C_28 
REMARK   14  A    between atoms: C_28  and  C_30 
REMARK       I    between atoms: C_30  and  N_32 
REMARK       I    between atoms: N_33  and  C_34 
REMARK   15  A    between atoms: C_34  and  C_36 
REMARK   16  A    between atoms: C_36  and  C_37 
REMARK   17  A    between atoms: C_36  and  N_45 
REMARK   18  A    between atoms: C_37  and  C_38 
REMARK   19  A    between atoms: C_38  and  C_39 
REMARK   20  A    between atoms: C_39  and  C_40 
REMARK   21  A    between atoms: C_40  and  N_41 
REMARK       I    between atoms: N_41  and  C_42 
REMARK       I    between atoms: C_42  and  N_44 
REMARK       I    between atoms: N_45  and  C_46 
REMARK   22  A    between atoms: C_46  and  C_48 
REMARK   23  A    between atoms: C_48  and  C_49 
REMARK   24  A    between atoms: C_48  and  N_57 
REMARK   25  A    between atoms: C_49  and  C_50 
REMARK   26  A    between atoms: C_53  and  O_56 
REMARK       I    between atoms: N_57  and  C_59 
REMARK   27  A    between atoms: C_59  and  C_61 
REMARK   28  A    between atoms: C_61  and  C_62 
REMARK   29  A    between atoms: C_61  and  N_64 
REMARK   30  A    between atoms: C_62  and  O_63 
REMARK       I    between atoms: N_64  and  C_65 
REMARK   31  A    between atoms: C_65  and  C_67 
REMARK   32  A    between atoms: C_67  and  C_68 
REMARK   33  A    between atoms: C_67  and  N_76 
REMARK   34  A    between atoms: C_68  and  C_69 
REMARK       I    between atoms: N_76  and  C_77 
REMARK   35  A    between atoms: C_77  and  C_79 
REMARK   36  A    between atoms: C_79  and  C_80 
REMARK   37  A    between atoms: C_79  and  N_88 
REMARK   38  A    between atoms: C_80  and  C_81 
REMARK       I    between atoms: N_88  and  C_89 
REMARK   39  A    between atoms: C_89  and  C_91 
REMARK   40  A    between atoms: C_91  and  C_92 
REMARK   41  A    between atoms: C_91  and  N_103 
REMARK   42  A    between atoms: C_92  and  C_93 
REMARK       I    between atoms: N_103  and  C_104 
ROOT
HETATM    1  C   UNK N   1      31.914  15.149   5.631  0.00  0.00     0.183 C 
ENDROOT
BRANCH   1   2
HETATM    2  C   UNK N   1      31.323  13.856   5.127  0.00  0.00     0.241 C 
HETATM    3  N   UNK N   1      30.056  13.737   4.660  0.00  0.00    -0.346 N 
HETATM    4  H   UNK N   1      29.844  12.851   4.288  0.00  0.00     0.163 HD
HETATM    5  O   UNK N   1      31.990  12.839   5.217  0.00  0.00    -0.271 OA
BRANCH   3   6
HETATM    6  C   UNK N   1      28.961  14.683   4.611  0.00  0.00     0.176 C 
BRANCH   6   7
HETATM    7  C   UNK N   1      28.719  15.341   3.285  0.00  0.00     0.241 C 
HETATM    8  N   UNK N   1      27.914  16.423   3.177  0.00  0.00    -0.346 N 
HETATM    9  H   UNK N   1      27.683  16.732   2.271  0.00  0.00     0.163 HD
HETATM   10  O   UNK N   1      29.238  14.887   2.278  0.00  0.00    -0.271 OA
BRANCH   8  11
HETATM   11  C   UNK N   1      27.366  17.159   4.297  0.00  0.00     0.176 C 
BRANCH  11  12
HETATM   12  C   UNK N   1      27.289  18.651   3.940  0.00  0.00     0.035 C 
BRANCH  12  13
HETATM   13  C   UNK N   1      28.300  19.516   4.693  0.00  0.00     0.002 C 
BRANCH  13  14
HETATM   14  C   UNK N   1      27.653  20.233   5.866  0.00  0.00    -0.004 C 
HETATM   15  C   UNK N   1      26.202  20.530   5.549  0.00  0.00     0.005 C 
ENDBRANCH  13  14
ENDBRANCH  12  13
ENDBRANCH  11  12
BRANCH  11  16
HETATM   16  C   UNK N   1      26.016  16.700   4.736  0.00  0.00     0.241 C 
HETATM   17  O   UNK N   1      25.744  16.732   5.928  0.00  0.00    -0.271 OA
HETATM   18  N   UNK N   1      25.049  16.493   3.806  0.00  0.00    -0.346 N 
HETATM   19  H   UNK N   1      25.311  16.264   2.886  0.00  0.00     0.163 HD
BRANCH  18  20
HETATM   20  C   UNK N   1      23.646  16.597   4.128  0.00  0.00     0.176 C 
BRANCH  20  21
HETATM   21  C   UNK N   1      23.029  17.988   4.124  0.00  0.00     0.036 C 
BRANCH  21  22
HETATM   22  C   UNK N   1      21.538  18.019   4.411  0.00  0.00     0.023 C 
BRANCH  22  23
HETATM   23  C   UNK N   1      20.748  18.373   3.152  0.00  0.00     0.138 C 
BRANCH  23  24
HETATM   24  N   UNK N   1      20.116  17.209   2.565  0.00  0.00    -0.227 N 
HETATM   25  C   UNK N   1      19.831  17.089   1.179  0.00  0.00     0.665 C 
HETATM   26  N   UNK N   1      20.199  17.996   0.351  0.00  0.00    -0.235 N 
HETATM   27  N   UNK N   1      19.146  15.949   0.704  0.00  0.00    -0.235 N 
HETATM   28  H   UNK N   1      20.120  18.947   0.592  0.00  0.00     0.174 HD
ATOM     29  HN  UNK N   1      20.575  17.732  -0.559  1.00  0.00     0.174 HD
HETATM   30  H   UNK N   1      18.849  15.646  -0.184  0.00  0.00     0.174 HD
HETATM   31  H   UNK N   1      18.913  15.317   1.422  0.00  0.00     0.174 HD
HETATM   32  H   UNK N   1      19.870  16.462   3.158  0.00  0.00     0.177 HD
ENDBRANCH  23  24
ENDBRANCH  22  23
ENDBRANCH  21  22
ENDBRANCH  20  21
BRANCH  20  33
HETATM   33  C   UNK N   1      22.945  15.361   3.637  0.00  0.00     0.243 C 
HETATM   34  O   UNK N   1      22.569  15.288   2.475  0.00  0.00    -0.271 OA
HETATM   35  N   UNK N   1      22.973  14.252   4.422  0.00  0.00    -0.337 N 
HETATM   36  C   UNK N   1      22.708  12.932   3.921  0.00  0.00     0.127 C 
HETATM   37  C   UNK N   1      23.286  14.312   5.823  0.00  0.00     0.179 C 
HETATM   38  C   UNK N   1      23.039  12.006   5.088  0.00  0.00     0.022 C 
HETATM   39  C   UNK N   1      23.679  12.884   6.166  0.00  0.00     0.037 C 
BRANCH  37  40
HETATM   40  C   UNK N   1      21.989  14.623   6.515  0.00  0.00     0.241 C 
HETATM   41  O   UNK N   1      20.923  14.297   6.019  0.00  0.00    -0.271 OA
HETATM   42  N   UNK N   1      22.062  15.244   7.723  0.00  0.00    -0.346 N 
HETATM   43  H   UNK N   1      22.979  15.391   8.052  0.00  0.00     0.163 HD
BRANCH  42  44
HETATM   44  C   UNK N   1      21.026  15.726   8.609  0.00  0.00     0.172 C 
HETATM   45  C   UNK N   1      20.146  14.637   9.201  0.00  0.00     0.042 C 
BRANCH  44  46
HETATM   46  C   UNK N   1      20.202  16.753   7.877  0.00  0.00     0.237 C 
HETATM   47  O   UNK N   1      20.595  17.904   7.801  0.00  0.00    -0.271 OA
HETATM   48  N   UNK N   1      19.045  16.403   7.272  0.00  0.00    -0.368 N 
HETATM   49  H   UNK N   1      18.467  17.095   6.876  0.00  0.00     0.159 HD
HETATM   50  H   UNK N   1      18.779  15.456   7.227  0.00  0.00     0.159 HD
ENDBRANCH  44  46
ENDBRANCH  42  44
ENDBRANCH  37  40
ENDBRANCH  20  33
ENDBRANCH  18  20
ENDBRANCH  11  16
ENDBRANCH   8  11
ENDBRANCH   6   7
BRANCH   6  51
HETATM   51  C   UNK N   1      27.672  13.962   5.018  0.00  0.00     0.035 C 
BRANCH  51  52
HETATM   52  C   UNK N   1      27.226  12.903   4.021  0.00  0.00     0.004 C 
BRANCH  52  53
HETATM   53  C   UNK N   1      27.133  11.515   4.645  0.00  0.00     0.020 C 
BRANCH  53  54
HETATM   54  C   UNK N   1      28.227  10.610   4.102  0.00  0.00     0.124 C 
BRANCH  54  55
HETATM   55  N   UNK N   1      29.431  10.714   4.901  0.00  0.00    -0.343 N 
HETATM   56  C   UNK N   1      30.092   9.612   5.335  0.00  0.00     0.313 C 
HETATM   57  O   UNK N   1      29.680   8.498   5.092  0.00  0.00    -0.248 OA
HETATM   58  N   UNK N   1      31.229   9.765   6.051  0.00  0.00    -0.352 N 
HETATM   59  H   UNK N   1      32.129  10.027   6.354  0.00  0.00     0.160 HD
HETATM   60  H   UNK N   1      30.972   9.228   6.835  0.00  0.00     0.160 HD
HETATM   61  H   UNK N   1      29.777  11.606   5.134  0.00  0.00     0.164 HD
ENDBRANCH  54  55
ENDBRANCH  53  54
ENDBRANCH  52  53
ENDBRANCH  51  52
ENDBRANCH   6  51
ENDBRANCH   3   6
ENDBRANCH   1   2
BRANCH   1  62
HETATM   62  C   UNK N   1      31.231  16.536   5.504  0.00  0.00     0.073 C 
BRANCH  62  63
HETATM   63  C   UNK N   1      30.825  17.127   6.841  0.00  0.00    -0.056 A 
HETATM   64  C   UNK N   1      31.768  17.796   7.631  0.00  0.00     0.010 A 
HETATM   65  C   UNK N   1      31.374  18.394   8.840  0.00  0.00     0.037 A 
HETATM   66  C   UNK N   1      30.039  18.324   9.260  0.00  0.00     0.065 A 
HETATM   67  C   UNK N   1      29.104  17.648   8.485  0.00  0.00     0.037 A 
HETATM   68  C   UNK N   1      29.496  17.063   7.288  0.00  0.00     0.010 A 
BRANCH  66  69
HETATM   69  O   UNK N   1      29.653  18.910  10.403  0.00  0.00    -0.361 OA
HETATM   70  H   UNK N   1      29.519  18.462  11.214  0.00  0.00     0.217 HD
ENDBRANCH  66  69
ENDBRANCH  62  63
ENDBRANCH   1  62
BRANCH   1  71
HETATM   71  N   UNK N   1      33.354  15.177   5.597  0.00  0.00    -0.341 N 
HETATM   72  C   UNK N   1      33.961  15.513   4.330  0.00  0.00     0.153 C 
HETATM   73  C   UNK N   1      34.161  14.858   6.655  0.00  0.00     0.245 C 
HETATM   74  O   UNK N   1      35.365  14.765   6.453  0.00  0.00    -0.271 OA
BRANCH  73  75
HETATM   75  C   UNK N   1      33.717  14.639   8.097  0.00  0.00     0.200 C 
BRANCH  75  76
HETATM   76  C   UNK N   1      32.295  14.251   8.517  0.00  0.00     0.199 C 
BRANCH  76  77
HETATM   77  O   UNK N   1      32.286  13.189   9.418  0.00  0.00    -0.398 OA
HETATM   78  H   UNK N   1      33.116  12.818   9.755  0.00  0.00     0.209 HD
ENDBRANCH  76  77
ENDBRANCH  75  76
BRANCH  75  79
HETATM   79  N   UNK N   1      34.164  15.807   8.803  0.00  0.00    -0.344 N 
HETATM   80  C   UNK N   1      35.209  15.767   9.655  0.00  0.00     0.241 C 
HETATM   81  O   UNK N   1      35.707  16.819  10.021  0.00  0.00    -0.271 OA
HETATM   82  H   UNK N   1      33.694  16.660   8.662  0.00  0.00     0.163 HD
BRANCH  80  83
HETATM   83  C   UNK N   1      35.781  14.459  10.160  0.00  0.00     0.180 C 
BRANCH  83  84
HETATM   84  C   UNK N   1      36.503  14.681  11.503  0.00  0.00     0.074 C 
BRANCH  84  85
HETATM   85  C   UNK N   1      35.945  13.916  12.667  0.00  0.00    -0.040 A 
HETATM   86  C   UNK N   1      36.456  14.086  13.956  0.00  0.00     0.010 A 
HETATM   87  C   UNK N   1      35.901  13.370  15.019  0.00  0.00     0.018 A 
HETATM   88  C   UNK N   1      34.839  12.495  14.775  0.00  0.00     0.087 A 
HETATM   89  N   UNK N   1      34.357  12.341  13.512  0.00  0.00    -0.375 N 
HETATM   90  C   UNK N   1      34.886  13.027  12.463  0.00  0.00     0.094 A 
ATOM     91  HN  UNK N   1      33.582  11.698  13.349  1.00  0.00     0.164 HD
ENDBRANCH  84  85
ENDBRANCH  83  84
BRANCH  83  92
HETATM   92  N   UNK N   1      36.660  13.841   9.173  0.00  0.00    -0.346 N 
HETATM   93  C   UNK N   1      36.794  12.511   8.911  0.00  0.00     0.241 C 
HETATM   94  O   UNK N   1      37.663  12.151   8.135  0.00  0.00    -0.271 OA
HETATM   95  H   UNK N   1      37.217  14.452   8.638  0.00  0.00     0.163 HD
BRANCH  93  96
HETATM   96  C   UNK N   1      35.969  11.453   9.585  0.00  0.00     0.180 C 
BRANCH  96  97
HETATM   97  C   UNK N   1      36.589  10.164  10.146  0.00  0.00     0.073 C 
BRANCH  97  98
HETATM   98  C   UNK N   1      36.712  10.071  11.635  0.00  0.00    -0.056 A 
HETATM   99  C   UNK N   1      35.838   9.243  12.352  0.00  0.00     0.009 A 
HETATM  100  C   UNK N   1      35.990   9.091  13.736  0.00  0.00     0.024 A 
HETATM  101  C   UNK N   1      37.022   9.759  14.403  0.00  0.00     0.034 A 
HETATM  102  C   UNK N   1      37.903  10.573  13.688  0.00  0.00     0.024 A 
HETATM  103 Cl   UNK N   1      37.214   9.573  16.133  0.00  0.00    -0.084 Cl
HETATM  104  C   UNK N   1      37.754  10.719  12.305  0.00  0.00     0.009 A 
ENDBRANCH  97  98
ENDBRANCH  96  97
BRANCH  96 105
HETATM  105  N   UNK N   1      34.562  11.457   9.273  0.00  0.00    -0.346 N 
HETATM  106  C   UNK N   1      34.023  10.627   8.370  0.00  0.00     0.241 C 
HETATM  107  O   UNK N   1      32.814  10.631   8.191  0.00  0.00    -0.271 OA
HETATM  108  H   UNK N   1      33.975  12.094   9.741  0.00  0.00     0.163 HD
BRANCH 106 109
HETATM  109  C   UNK N   1      34.914   9.740   7.566  0.00  0.00     0.180 C 
BRANCH 109 110
HETATM  110  C   UNK N   1      34.561   8.272   7.352  0.00  0.00     0.073 C 
BRANCH 110 111
HETATM  111  C   UNK N   1      34.596   7.520   8.623  0.00  0.00    -0.055 A 
HETATM  112  C   UNK N   1      33.407   7.352   9.333  0.00  0.00     0.008 A 
HETATM  113  C   UNK N   1      33.416   6.718  10.573  0.00  0.00     0.013 A 
HETATM  114  C   UNK N   1      34.616   6.247  11.104  0.00  0.00    -0.026 A 
HETATM  115  C   UNK N   1      34.630   5.641  12.361  0.00  0.00     0.012 A 
HETATM  116  C   UNK N   1      35.820   6.390  10.375  0.00  0.00    -0.025 A 
HETATM  117  C   UNK N   1      35.834   5.176  12.897  0.00  0.00     0.001 A 
HETATM  118  C   UNK N   1      37.024   5.306  12.171  0.00  0.00     0.001 A 
HETATM  119  C   UNK N   1      37.018   5.913  10.911  0.00  0.00     0.012 A 
HETATM  120  C   UNK N   1      35.805   7.031   9.134  0.00  0.00     0.019 A 
ENDBRANCH 110 111
ENDBRANCH 109 110
BRANCH 109 121
HETATM  121  N   UNK N   1      35.692  10.389   6.545  0.00  0.00    -0.348 N 
HETATM  122  C   UNK N   1      35.151  10.643   5.330  0.00  0.00     0.214 C 
HETATM  123  O   UNK N   1      34.004  10.302   5.074  0.00  0.00    -0.274 OA
HETATM  124  C   UNK N   1      35.955  11.345   4.295  0.00  0.00     0.117 C 
HETATM  125  H   UNK N   1      36.623  10.651   6.731  0.00  0.00     0.163 HD
ENDBRANCH 109 121
ENDBRANCH 106 109
ENDBRANCH  96 105
ENDBRANCH  93  96
ENDBRANCH  83  92
ENDBRANCH  80  83
ENDBRANCH  75  79
ENDBRANCH  73  75
ENDBRANCH   1  71
TORSDOF 42
ENDMDL
MODEL 9
REMARK VINA RESULT:      -7.5      2.539      4.536
REMARK WARNING: 32 MAX_TORS EXCEEDED!!!
REMARK  42 active torsions:
REMARK  status: ('A' for Active; 'I' for Inactive)
REMARK    1  A    between atoms: C_2  and  C_3 
REMARK    2  A    between atoms: C_3  and  C_4 
REMARK    3  A    between atoms: C_4  and  C_5 
REMARK    4  A    between atoms: C_5  and  C_6 
REMARK    5  A    between atoms: C_5  and  N_33 
REMARK       I    between atoms: C_6  and  N_8 
REMARK    6  A    between atoms: C_9  and  N_8 
REMARK    7  A    between atoms: C_9  and  C_10 
REMARK    8  A    between atoms: C_9  and  C_18 
REMARK    9  A    between atoms: C_10  and  C_11 
REMARK   10  A    between atoms: C_11  and  C_12 
REMARK   11  A    between atoms: C_12  and  N_13 
REMARK       I    between atoms: N_13  and  C_14 
REMARK       I    between atoms: C_14  and  N_17 
REMARK       I    between atoms: C_18  and  N_20 
REMARK   12  A    between atoms: C_24  and  C_25 
REMARK       I    between atoms: C_25  and  N_27 
REMARK   13  A    between atoms: N_27  and  C_28 
REMARK   14  A    between atoms: C_28  and  C_30 
REMARK       I    between atoms: C_30  and  N_32 
REMARK       I    between atoms: N_33  and  C_34 
REMARK   15  A    between atoms: C_34  and  C_36 
REMARK   16  A    between atoms: C_36  and  C_37 
REMARK   17  A    between atoms: C_36  and  N_45 
REMARK   18  A    between atoms: C_37  and  C_38 
REMARK   19  A    between atoms: C_38  and  C_39 
REMARK   20  A    between atoms: C_39  and  C_40 
REMARK   21  A    between atoms: C_40  and  N_41 
REMARK       I    between atoms: N_41  and  C_42 
REMARK       I    between atoms: C_42  and  N_44 
REMARK       I    between atoms: N_45  and  C_46 
REMARK   22  A    between atoms: C_46  and  C_48 
REMARK   23  A    between atoms: C_48  and  C_49 
REMARK   24  A    between atoms: C_48  and  N_57 
REMARK   25  A    between atoms: C_49  and  C_50 
REMARK   26  A    between atoms: C_53  and  O_56 
REMARK       I    between atoms: N_57  and  C_59 
REMARK   27  A    between atoms: C_59  and  C_61 
REMARK   28  A    between atoms: C_61  and  C_62 
REMARK   29  A    between atoms: C_61  and  N_64 
REMARK   30  A    between atoms: C_62  and  O_63 
REMARK       I    between atoms: N_64  and  C_65 
REMARK   31  A    between atoms: C_65  and  C_67 
REMARK   32  A    between atoms: C_67  and  C_68 
REMARK   33  A    between atoms: C_67  and  N_76 
REMARK   34  A    between atoms: C_68  and  C_69 
REMARK       I    between atoms: N_76  and  C_77 
REMARK   35  A    between atoms: C_77  and  C_79 
REMARK   36  A    between atoms: C_79  and  C_80 
REMARK   37  A    between atoms: C_79  and  N_88 
REMARK   38  A    between atoms: C_80  and  C_81 
REMARK       I    between atoms: N_88  and  C_89 
REMARK   39  A    between atoms: C_89  and  C_91 
REMARK   40  A    between atoms: C_91  and  C_92 
REMARK   41  A    between atoms: C_91  and  N_103 
REMARK   42  A    between atoms: C_92  and  C_93 
REMARK       I    between atoms: N_103  and  C_104 
ROOT
HETATM    1  C   UNK N   1      32.297  14.978   6.253  0.00  0.00     0.183 C 
ENDROOT
BRANCH   1   2
HETATM    2  C   UNK N   1      31.811  13.629   5.782  0.00  0.00     0.241 C 
HETATM    3  N   UNK N   1      30.637  13.435   5.132  0.00  0.00    -0.346 N 
HETATM    4  H   UNK N   1      30.498  12.514   4.815  0.00  0.00     0.163 HD
HETATM    5  O   UNK N   1      32.466  12.643   6.071  0.00  0.00    -0.271 OA
BRANCH   3   6
HETATM    6  C   UNK N   1      29.553  14.343   4.822  0.00  0.00     0.176 C 
BRANCH   6   7
HETATM    7  C   UNK N   1      29.662  15.078   3.520  0.00  0.00     0.241 C 
HETATM    8  N   UNK N   1      28.918  16.180   3.273  0.00  0.00    -0.346 N 
HETATM    9  H   UNK N   1      28.928  16.543   2.358  0.00  0.00     0.163 HD
HETATM   10  O   UNK N   1      30.419  14.669   2.653  0.00  0.00    -0.271 OA
BRANCH   8  11
HETATM   11  C   UNK N   1      28.107  16.865   4.257  0.00  0.00     0.176 C 
BRANCH  11  12
HETATM   12  C   UNK N   1      28.670  18.275   4.494  0.00  0.00     0.035 C 
BRANCH  12  13
HETATM   13  C   UNK N   1      27.599  19.320   4.802  0.00  0.00     0.002 C 
BRANCH  13  14
HETATM   14  C   UNK N   1      27.767  19.892   6.200  0.00  0.00    -0.004 C 
HETATM   15  C   UNK N   1      27.093  21.246   6.286  0.00  0.00     0.005 C 
ENDBRANCH  13  14
ENDBRANCH  12  13
ENDBRANCH  11  12
BRANCH  11  16
HETATM   16  C   UNK N   1      26.664  16.980   3.894  0.00  0.00     0.241 C 
HETATM   17  O   UNK N   1      26.354  16.982   2.711  0.00  0.00    -0.271 OA
HETATM   18  N   UNK N   1      25.721  16.834   4.860  0.00  0.00    -0.346 N 
HETATM   19  H   UNK N   1      25.955  17.042   5.793  0.00  0.00     0.163 HD
BRANCH  18  20
HETATM   20  C   UNK N   1      24.383  16.384   4.559  0.00  0.00     0.176 C 
BRANCH  20  21
HETATM   21  C   UNK N   1      23.511  17.300   3.713  0.00  0.00     0.036 C 
BRANCH  21  22
HETATM   22  C   UNK N   1      23.410  18.727   4.225  0.00  0.00     0.023 C 
BRANCH  22  23
HETATM   23  C   UNK N   1      22.381  19.522   3.423  0.00  0.00     0.138 C 
BRANCH  23  24
HETATM   24  N   UNK N   1      21.117  18.820   3.320  0.00  0.00    -0.227 N 
HETATM   25  C   UNK N   1      20.096  19.178   2.400  0.00  0.00     0.665 C 
HETATM   26  N   UNK N   1      20.282  20.115   1.544  0.00  0.00    -0.235 N 
HETATM   27  N   UNK N   1      18.867  18.485   2.418  0.00  0.00    -0.235 N 
HETATM   28  H   UNK N   1      20.752  20.939   1.807  0.00  0.00     0.174 HD
ATOM     29  HN  UNK N   1      19.943  20.006   0.589  1.00  0.00     0.174 HD
HETATM   30  H   UNK N   1      18.036  18.544   1.893  0.00  0.00     0.174 HD
HETATM   31  H   UNK N   1      18.832  17.786   3.110  0.00  0.00     0.174 HD
HETATM   32  H   UNK N   1      20.958  18.055   3.919  0.00  0.00     0.177 HD
ENDBRANCH  23  24
ENDBRANCH  22  23
ENDBRANCH  21  22
ENDBRANCH  20  21
BRANCH  20  33
HETATM   33  C   UNK N   1      24.394  14.885   4.446  0.00  0.00     0.243 C 
HETATM   34  O   UNK N   1      24.569  14.351   3.359  0.00  0.00    -0.271 OA
HETATM   35  N   UNK N   1      24.463  14.155   5.590  0.00  0.00    -0.337 N 
HETATM   36  C   UNK N   1      24.876  12.779   5.616  0.00  0.00     0.127 C 
HETATM   37  C   UNK N   1      24.140  14.710   6.875  0.00  0.00     0.179 C 
HETATM   38  C   UNK N   1      24.988  12.441   7.100  0.00  0.00     0.022 C 
HETATM   39  C   UNK N   1      24.806  13.759   7.857  0.00  0.00     0.037 C 
BRANCH  37  40
HETATM   40  C   UNK N   1      22.651  14.566   7.016  0.00  0.00     0.241 C 
HETATM   41  O   UNK N   1      21.922  14.630   6.039  0.00  0.00    -0.271 OA
HETATM   42  N   UNK N   1      22.165  14.325   8.263  0.00  0.00    -0.346 N 
HETATM   43  H   UNK N   1      22.856  14.223   8.958  0.00  0.00     0.163 HD
BRANCH  42  44
HETATM   44  C   UNK N   1      20.808  14.193   8.747  0.00  0.00     0.172 C 
HETATM   45  C   UNK N   1      20.086  15.514   8.964  0.00  0.00     0.042 C 
BRANCH  44  46
HETATM   46  C   UNK N   1      20.821  13.368  10.007  0.00  0.00     0.237 C 
HETATM   47  O   UNK N   1      19.770  13.048  10.533  0.00  0.00    -0.271 OA
HETATM   48  N   UNK N   1      21.989  12.948  10.543  0.00  0.00    -0.368 N 
HETATM   49  H   UNK N   1      21.995  12.489  11.415  0.00  0.00     0.159 HD
HETATM   50  H   UNK N   1      22.835  13.101  10.063  0.00  0.00     0.159 HD
ENDBRANCH  44  46
ENDBRANCH  42  44
ENDBRANCH  37  40
ENDBRANCH  20  33
ENDBRANCH  18  20
ENDBRANCH  11  16
ENDBRANCH   8  11
ENDBRANCH   6   7
BRANCH   6  51
HETATM   51  C   UNK N   1      28.241  13.552   4.805  0.00  0.00     0.035 C 
BRANCH  51  52
HETATM   52  C   UNK N   1      28.439  12.047   4.701  0.00  0.00     0.004 C 
BRANCH  52  53
HETATM   53  C   UNK N   1      28.281  11.534   3.274  0.00  0.00     0.020 C 
BRANCH  53  54
HETATM   54  C   UNK N   1      27.396  12.468   2.465  0.00  0.00     0.124 C 
BRANCH  54  55
HETATM   55  N   UNK N   1      26.037  11.971   2.402  0.00  0.00    -0.343 N 
HETATM   56  C   UNK N   1      25.672  11.014   1.513  0.00  0.00     0.313 C 
HETATM   57  O   UNK N   1      26.467  10.560   0.719  0.00  0.00    -0.248 OA
HETATM   58  N   UNK N   1      24.397  10.561   1.518  0.00  0.00    -0.352 N 
HETATM   59  H   UNK N   1      23.526  10.187   1.786  0.00  0.00     0.160 HD
HETATM   60  H   UNK N   1      24.189  10.725   0.570  0.00  0.00     0.160 HD
HETATM   61  H   UNK N   1      25.362  12.336   3.019  0.00  0.00     0.164 HD
ENDBRANCH  54  55
ENDBRANCH  53  54
ENDBRANCH  52  53
ENDBRANCH  51  52
ENDBRANCH   6  51
ENDBRANCH   3   6
ENDBRANCH   1   2
BRANCH   1  62
HETATM   62  C   UNK N   1      31.596  16.324   5.935  0.00  0.00     0.073 C 
BRANCH  62  63
HETATM   63  C   UNK N   1      31.027  17.007   7.165  0.00  0.00    -0.056 A 
HETATM   64  C   UNK N   1      31.809  17.910   7.895  0.00  0.00     0.010 A 
HETATM   65  C   UNK N   1      31.259  18.585   8.998  0.00  0.00     0.037 A 
HETATM   66  C   UNK N   1      29.928  18.356   9.372  0.00  0.00     0.065 A 
HETATM   67  C   UNK N   1      29.153  17.449   8.659  0.00  0.00     0.037 A 
HETATM   68  C   UNK N   1      29.700  16.788   7.566  0.00  0.00     0.010 A 
BRANCH  66  69
HETATM   69  O   UNK N   1      29.391  19.013  10.412  0.00  0.00    -0.361 OA
HETATM   70  H   UNK N   1      28.576  18.795  10.818  0.00  0.00     0.217 HD
ENDBRANCH  66  69
ENDBRANCH  62  63
ENDBRANCH   1  62
BRANCH   1  71
HETATM   71  N   UNK N   1      33.728  15.058   6.392  0.00  0.00    -0.341 N 
HETATM   72  C   UNK N   1      34.479  15.320   5.186  0.00  0.00     0.153 C 
HETATM   73  C   UNK N   1      34.406  14.850   7.562  0.00  0.00     0.245 C 
HETATM   74  O   UNK N   1      35.629  14.789   7.517  0.00  0.00    -0.271 OA
BRANCH  73  75
HETATM   75  C   UNK N   1      33.793  14.724   8.952  0.00  0.00     0.200 C 
BRANCH  75  76
HETATM   76  C   UNK N   1      32.339  14.322   9.225  0.00  0.00     0.199 C 
BRANCH  76  77
HETATM   77  O   UNK N   1      31.740  15.140  10.180  0.00  0.00    -0.398 OA
HETATM   78  H   UNK N   1      31.385  14.765  11.000  0.00  0.00     0.209 HD
ENDBRANCH  76  77
ENDBRANCH  75  76
BRANCH  75  79
HETATM   79  N   UNK N   1      34.122  15.955   9.616  0.00  0.00    -0.344 N 
HETATM   80  C   UNK N   1      35.195  16.061  10.427  0.00  0.00     0.241 C 
HETATM   81  O   UNK N   1      35.577  17.172  10.751  0.00  0.00    -0.271 OA
HETATM   82  H   UNK N   1      33.549  16.742   9.474  0.00  0.00     0.163 HD
BRANCH  80  83
HETATM   83  C   UNK N   1      35.935  14.842  10.937  0.00  0.00     0.180 C 
BRANCH  83  84
HETATM   84  C   UNK N   1      36.034  14.890  12.474  0.00  0.00     0.074 C 
BRANCH  84  85
HETATM   85  C   UNK N   1      35.409  13.732  13.195  0.00  0.00    -0.040 A 
HETATM   86  C   UNK N   1      35.420  13.657  14.591  0.00  0.00     0.010 A 
HETATM   87  C   UNK N   1      34.813  12.573  15.228  0.00  0.00     0.018 A 
HETATM   88  C   UNK N   1      34.201  11.581  14.459  0.00  0.00     0.087 A 
HETATM   89  N   UNK N   1      34.203  11.670  13.102  0.00  0.00    -0.375 N 
HETATM   90  C   UNK N   1      34.791  12.716  12.461  0.00  0.00     0.094 A 
ATOM     91  HN  UNK N   1      33.753  10.938  12.552  1.00  0.00     0.164 HD
ENDBRANCH  84  85
ENDBRANCH  83  84
BRANCH  83  92
HETATM   92  N   UNK N   1      37.250  14.715  10.319  0.00  0.00    -0.346 N 
HETATM   93  C   UNK N   1      37.874  13.563   9.944  0.00  0.00     0.241 C 
HETATM   94  O   UNK N   1      39.025  13.622   9.548  0.00  0.00    -0.271 OA
HETATM   95  H   UNK N   1      37.740  15.553  10.153  0.00  0.00     0.163 HD
BRANCH  93  96
HETATM   96  C   UNK N   1      37.237  12.208  10.061  0.00  0.00     0.180 C 
BRANCH  96  97
HETATM   97  C   UNK N   1      38.013  10.978  10.555  0.00  0.00     0.073 C 
BRANCH  97  98
HETATM   98  C   UNK N   1      37.790  10.571  11.978  0.00  0.00    -0.056 A 
HETATM   99  C   UNK N   1      38.211  11.416  13.014  0.00  0.00     0.009 A 
HETATM  100  C   UNK N   1      37.942  11.081  14.348  0.00  0.00     0.024 A 
HETATM  101  C   UNK N   1      37.245   9.906  14.646  0.00  0.00     0.034 A 
HETATM  102  C   UNK N   1      36.813   9.070  13.614  0.00  0.00     0.024 A 
HETATM  103 Cl   UNK N   1      36.909   9.483  16.311  0.00  0.00    -0.084 Cl
HETATM  104  C   UNK N   1      37.076   9.408  12.283  0.00  0.00     0.009 A 
ENDBRANCH  97  98
ENDBRANCH  96  97
BRANCH  96 105
HETATM  105  N   UNK N   1      36.054  11.998   9.266  0.00  0.00    -0.346 N 
HETATM  106  C   UNK N   1      36.104  11.547   8.005  0.00  0.00     0.241 C 
HETATM  107  O   UNK N   1      35.066  11.328   7.400  0.00  0.00    -0.271 OA
HETATM  108  H   UNK N   1      35.175  12.192   9.665  0.00  0.00     0.163 HD
BRANCH 106 109
HETATM  109  C   UNK N   1      37.431  11.362   7.346  0.00  0.00     0.180 C 
BRANCH 109 110
HETATM  110  C   UNK N   1      37.821  10.014   6.750  0.00  0.00     0.073 C 
BRANCH 110 111
HETATM  111  C   UNK N   1      38.403   9.123   7.776  0.00  0.00    -0.055 A 
HETATM  112  C   UNK N   1      37.588   8.151   8.356  0.00  0.00     0.008 A 
HETATM  113  C   UNK N   1      38.080   7.346   9.381  0.00  0.00     0.013 A 
HETATM  114  C   UNK N   1      39.391   7.510   9.825  0.00  0.00    -0.026 A 
HETATM  115  C   UNK N   1      39.873   6.727  10.875  0.00  0.00     0.012 A 
HETATM  116  C   UNK N   1      40.230   8.477   9.221  0.00  0.00    -0.025 A 
HETATM  117  C   UNK N   1      41.185   6.898  11.326  0.00  0.00     0.001 A 
HETATM  118  C   UNK N   1      42.020   7.845  10.720  0.00  0.00     0.001 A 
HETATM  119  C   UNK N   1      41.543   8.635   9.669  0.00  0.00     0.012 A 
HETATM  120  C   UNK N   1      39.729   9.284   8.197  0.00  0.00     0.019 A 
ENDBRANCH 110 111
ENDBRANCH 109 110
BRANCH 109 121
HETATM  121  N   UNK N   1      38.008  12.540   6.753  0.00  0.00    -0.348 N 
HETATM  122  C   UNK N   1      37.631  12.936   5.514  0.00  0.00     0.214 C 
HETATM  123  O   UNK N   1      36.817  12.288   4.871  0.00  0.00    -0.274 OA
HETATM  124  C   UNK N   1      38.210  14.173   4.927  0.00  0.00     0.117 C 
HETATM  125  H   UNK N   1      38.679  13.060   7.251  0.00  0.00     0.163 HD
ENDBRANCH 109 121
ENDBRANCH 106 109
ENDBRANCH  96 105
ENDBRANCH  93  96
ENDBRANCH  83  92
ENDBRANCH  80  83
ENDBRANCH  75  79
ENDBRANCH  73  75
ENDBRANCH   1  71
TORSDOF 42
ENDMDL
