MODEL 1
REMARK VINA RESULT:      -6.6      0.000      0.000
REMARK  17 active torsions:
REMARK  status: ('A' for Active; 'I' for Inactive)
REMARK    1  A    between atoms: C_2  and  O_3 
REMARK    2  A    between atoms: O_3  and  C_4 
REMARK    3  A    between atoms: C_4  and  C_6 
REMARK    4  A    between atoms: C_6  and  N_8 
REMARK    5  A    between atoms: N_8  and  P_9 
REMARK    6  A    between atoms: P_9  and  C_11 
REMARK    7  A    between atoms: P_9  and  N_32 
REMARK    8  A    between atoms: C_11  and  O_12 
REMARK    9  A    between atoms: O_12  and  C_13 
REMARK   10  A    between atoms: C_13  and  C_14 
REMARK   11  A    between atoms: C_14  and  N_15 
REMARK       I    between atoms: C_23  and  N_31 
REMARK   12  A    between atoms: C_26  and  N_27 
REMARK   13  A    between atoms: N_27  and  C_28 
REMARK   14  A    between atoms: N_32  and  C_33 
REMARK   15  A    between atoms: C_33  and  C_35 
REMARK   16  A    between atoms: C_35  and  O_37 
REMARK   17  A    between atoms: O_37  and  C_38 
ROOT
HETATM    1  O   UNK N   1      35.728  17.074  10.171  0.00  0.00    -0.379 OA
ENDROOT
BRANCH   1   2
HETATM    2  C   UNK N   1      35.413  16.481  11.411  0.00  0.00     0.284 C 
BRANCH   2   3
HETATM    3  P   UNK N   1      35.736  14.638  11.464  0.00  0.00     0.272 P 
HETATM    4  O   UNK N   1      36.565  14.426  10.169  0.00  0.00    -0.273 OA
BRANCH   3   5
HETATM    5  N   UNK N   1      34.361  13.501  11.149  0.00  0.00    -0.341 N 
HETATM    6  H   UNK N   1      33.451  13.601  11.600  0.00  0.00     0.163 HD
BRANCH   5   7
HETATM    7  C   UNK N   1      34.656  12.422  10.198  0.00  0.00     0.180 C 
HETATM    8  C   UNK N   1      34.821  11.044  10.837  0.00  0.00     0.043 C 
BRANCH   7   9
HETATM    9  C   UNK N   1      33.692  12.433   9.037  0.00  0.00     0.281 C 
HETATM   10  O   UNK N   1      32.707  11.712   9.066  0.00  0.00    -0.263 OA
BRANCH   9  11
HETATM   11  O   UNK N   1      33.847  13.281   7.992  0.00  0.00    -0.320 OA
BRANCH  11  12
HETATM   12  C   UNK N   1      32.814  14.005   7.448  0.00  0.00     0.174 C 
HETATM   13  C   UNK N   1      32.592  13.558   6.021  0.00  0.00     0.034 C 
ENDBRANCH  11  12
ENDBRANCH   9  11
ENDBRANCH   7   9
ENDBRANCH   5   7
ENDBRANCH   3   5
BRANCH   3  14
HETATM   14  N   UNK N   1      36.943  14.071  12.695  0.00  0.00    -0.341 N 
HETATM   15  H   UNK N   1      37.904  14.409  12.716  0.00  0.00     0.163 HD
BRANCH  14  16
HETATM   16  C   UNK N   1      36.431  13.094  13.653  0.00  0.00     0.180 C 
HETATM   17  C   UNK N   1      37.297  11.855  13.507  0.00  0.00     0.043 C 
BRANCH  16  18
HETATM   18  C   UNK N   1      36.493  13.532  15.109  0.00  0.00     0.281 C 
HETATM   19  O   UNK N   1      37.128  14.518  15.430  0.00  0.00    -0.263 OA
BRANCH  18  20
HETATM   20  O   UNK N   1      35.891  12.810  16.088  0.00  0.00    -0.320 OA
BRANCH  20  21
HETATM   21  C   UNK N   1      34.813  13.268  16.807  0.00  0.00     0.174 C 
HETATM   22  C   UNK N   1      35.178  13.317  18.278  0.00  0.00     0.034 C 
ENDBRANCH  20  21
ENDBRANCH  18  20
ENDBRANCH  16  18
ENDBRANCH  14  16
ENDBRANCH   3  14
ENDBRANCH   2   3
ENDBRANCH   1   2
BRANCH   1  23
HETATM   23  C   UNK N   1      34.682  16.869   9.250  0.00  0.00     0.188 C 
BRANCH  23  24
HETATM   24  C   UNK N   1      34.536  18.075   8.355  0.00  0.00     0.157 C 
BRANCH  24  25
HETATM   25  N   UNK N   1      33.449  17.784   7.454  0.00  0.00    -0.325 N 
HETATM   26  C   UNK N   1      33.572  17.472   6.143  0.00  0.00     0.185 A 
HETATM   27  N   UNK N   1      32.369  17.154   5.605  0.00  0.00    -0.346 N 
HETATM   28  C   UNK N   1      31.502  17.283   6.626  0.00  0.00     0.123 A 
ATOM     29  HN  UNK N   1      32.168  16.880   4.644  1.00  0.00     0.167 HD
HETATM   30  C   UNK N   1      32.152  17.666   7.736  0.00  0.00     0.155 A 
HETATM   31  C   UNK N   1      30.133  17.061   6.658  0.00  0.00     0.148 A 
HETATM   32  N   UNK N   1      31.532  17.861   8.922  0.00  0.00    -0.174 N 
HETATM   33  C   UNK N   1      30.177  17.661   8.974  0.00  0.00     0.679 A 
ATOM     34  HN  UNK N   1      32.055  18.147   9.750  1.00  0.00     0.186 HD
HETATM   35  N   UNK N   1      29.491  17.255   7.851  0.00  0.00    -0.175 N 
HETATM   36  N   UNK N   1      29.482  17.880  10.179  0.00  0.00    -0.234 N 
ATOM     37  HN  UNK N   1      28.485  17.096   7.909  1.00  0.00     0.186 HD
HETATM   38  H   UNK N   1      28.519  18.082  10.174  0.00  0.00     0.174 HD
HETATM   39  H   UNK N   1      29.966  17.831  11.036  0.00  0.00     0.174 HD
BRANCH  31  40
HETATM   40  N   UNK N   1      29.417  16.631   5.510  0.00  0.00    -0.369 N 
HETATM   41  H   UNK N   1      29.050  15.718   5.488  0.00  0.00     0.161 HD
BRANCH  40  42
HETATM   42  C   UNK N   1      29.215  17.499   4.373  0.00  0.00     0.083 A 
HETATM   43  C   UNK N   1      28.266  18.615   4.745  0.00  0.00     0.027 A 
HETATM   44  C   UNK N   1      27.768  17.442   3.929  0.00  0.00     0.027 A 
ENDBRANCH  40  42
ENDBRANCH  31  40
ENDBRANCH  24  25
ENDBRANCH  23  24
ENDBRANCH   1  23
TORSDOF 17
ENDMDL
MODEL 2
REMARK VINA RESULT:      -6.4      8.125     12.742
REMARK  17 active torsions:
REMARK  status: ('A' for Active; 'I' for Inactive)
REMARK    1  A    between atoms: C_2  and  O_3 
REMARK    2  A    between atoms: O_3  and  C_4 
REMARK    3  A    between atoms: C_4  and  C_6 
REMARK    4  A    between atoms: C_6  and  N_8 
REMARK    5  A    between atoms: N_8  and  P_9 
REMARK    6  A    between atoms: P_9  and  C_11 
REMARK    7  A    between atoms: P_9  and  N_32 
REMARK    8  A    between atoms: C_11  and  O_12 
REMARK    9  A    between atoms: O_12  and  C_13 
REMARK   10  A    between atoms: C_13  and  C_14 
REMARK   11  A    between atoms: C_14  and  N_15 
REMARK       I    between atoms: C_23  and  N_31 
REMARK   12  A    between atoms: C_26  and  N_27 
REMARK   13  A    between atoms: N_27  and  C_28 
REMARK   14  A    between atoms: N_32  and  C_33 
REMARK   15  A    between atoms: C_33  and  C_35 
REMARK   16  A    between atoms: C_35  and  O_37 
REMARK   17  A    between atoms: O_37  and  C_38 
ROOT
HETATM    1  O   UNK N   1      23.339  20.762   3.333  0.00  0.00    -0.379 OA
ENDROOT
BRANCH   1   2
HETATM    2  C   UNK N   1      24.447  19.931   3.066  0.00  0.00     0.284 C 
BRANCH   2   3
HETATM    3  P   UNK N   1      25.037  18.966   4.557  0.00  0.00     0.272 P 
HETATM    4  O   UNK N   1      23.695  18.484   5.172  0.00  0.00    -0.273 OA
BRANCH   3   5
HETATM    5  N   UNK N   1      25.724  19.872   5.968  0.00  0.00    -0.341 N 
HETATM    6  H   UNK N   1      25.140  20.253   6.713  0.00  0.00     0.163 HD
BRANCH   5   7
HETATM    7  C   UNK N   1      27.185  20.016   5.957  0.00  0.00     0.180 C 
HETATM    8  C   UNK N   1      27.683  21.425   6.281  0.00  0.00     0.043 C 
BRANCH   7   9
HETATM    9  C   UNK N   1      27.851  18.941   6.781  0.00  0.00     0.281 C 
HETATM   10  O   UNK N   1      28.269  17.934   6.232  0.00  0.00    -0.263 OA
BRANCH   9  11
HETATM   11  O   UNK N   1      28.068  19.097   8.109  0.00  0.00    -0.320 OA
BRANCH  11  12
HETATM   12  C   UNK N   1      28.517  18.085   8.923  0.00  0.00     0.174 C 
HETATM   13  C   UNK N   1      29.635  18.609   9.796  0.00  0.00     0.034 C 
ENDBRANCH  11  12
ENDBRANCH   9  11
ENDBRANCH   7   9
ENDBRANCH   5   7
ENDBRANCH   3   5
BRANCH   3  14
HETATM   14  N   UNK N   1      25.811  17.361   4.217  0.00  0.00    -0.341 N 
HETATM   15  H   UNK N   1      26.676  17.063   4.666  0.00  0.00     0.163 HD
BRANCH  14  16
HETATM   16  C   UNK N   1      25.098  16.527   3.252  0.00  0.00     0.180 C 
HETATM   17  C   UNK N   1      26.161  15.843   2.409  0.00  0.00     0.043 C 
BRANCH  16  18
HETATM   18  C   UNK N   1      24.226  15.441   3.864  0.00  0.00     0.281 C 
HETATM   19  O   UNK N   1      23.391  14.868   3.192  0.00  0.00    -0.263 OA
BRANCH  18  20
HETATM   20  O   UNK N   1      24.318  15.121   5.181  0.00  0.00    -0.320 OA
BRANCH  20  21
HETATM   21  C   UNK N   1      24.516  13.838   5.632  0.00  0.00     0.174 C 
HETATM   22  C   UNK N   1      25.995  13.622   5.889  0.00  0.00     0.034 C 
ENDBRANCH  20  21
ENDBRANCH  18  20
ENDBRANCH  16  18
ENDBRANCH  14  16
ENDBRANCH   3  14
ENDBRANCH   2   3
ENDBRANCH   1   2
BRANCH   1  23
HETATM   23  C   UNK N   1      22.214  20.329   2.603  0.00  0.00     0.188 C 
BRANCH  23  24
HETATM   24  C   UNK N   1      21.054  20.087   3.537  0.00  0.00     0.157 C 
BRANCH  24  25
HETATM   25  N   UNK N   1      20.471  18.828   3.144  0.00  0.00    -0.325 N 
HETATM   26  C   UNK N   1      19.831  18.583   1.977  0.00  0.00     0.185 A 
HETATM   27  N   UNK N   1      19.494  17.276   1.874  0.00  0.00    -0.346 N 
HETATM   28  C   UNK N   1      19.943  16.722   3.015  0.00  0.00     0.123 A 
ATOM     29  HN  UNK N   1      19.008  16.815   1.104  1.00  0.00     0.167 HD
HETATM   30  C   UNK N   1      20.528  17.658   3.780  0.00  0.00     0.155 A 
HETATM   31  C   UNK N   1      19.894  15.403   3.439  0.00  0.00     0.148 A 
HETATM   32  N   UNK N   1      21.084  17.384   4.982  0.00  0.00    -0.174 N 
HETATM   33  C   UNK N   1      21.033  16.088   5.428  0.00  0.00     0.679 A 
ATOM     34  HN  UNK N   1      21.525  18.116   5.538  1.00  0.00     0.186 HD
HETATM   35  N   UNK N   1      20.451  15.109   4.653  0.00  0.00    -0.175 N 
HETATM   36  N   UNK N   1      21.572  15.760   6.686  0.00  0.00    -0.234 N 
ATOM     37  HN  UNK N   1      20.434  14.147   4.992  1.00  0.00     0.186 HD
HETATM   38  H   UNK N   1      21.261  14.963   7.173  0.00  0.00     0.174 HD
HETATM   39  H   UNK N   1      22.267  16.334   7.084  0.00  0.00     0.174 HD
BRANCH  31  40
HETATM   40  N   UNK N   1      19.307  14.383   2.644  0.00  0.00    -0.369 N 
HETATM   41  H   UNK N   1      18.333  14.389   2.501  0.00  0.00     0.161 HD
BRANCH  40  42
HETATM   42  C   UNK N   1      20.102  13.337   2.043  0.00  0.00     0.083 A 
HETATM   43  C   UNK N   1      20.826  13.880   0.833  0.00  0.00     0.027 A 
HETATM   44  C   UNK N   1      19.586  13.031   0.652  0.00  0.00     0.027 A 
ENDBRANCH  40  42
ENDBRANCH  31  40
ENDBRANCH  24  25
ENDBRANCH  23  24
ENDBRANCH   1  23
TORSDOF 17
ENDMDL
MODEL 3
REMARK VINA RESULT:      -6.4      2.499      6.363
REMARK  17 active torsions:
REMARK  status: ('A' for Active; 'I' for Inactive)
REMARK    1  A    between atoms: C_2  and  O_3 
REMARK    2  A    between atoms: O_3  and  C_4 
REMARK    3  A    between atoms: C_4  and  C_6 
REMARK    4  A    between atoms: C_6  and  N_8 
REMARK    5  A    between atoms: N_8  and  P_9 
REMARK    6  A    between atoms: P_9  and  C_11 
REMARK    7  A    between atoms: P_9  and  N_32 
REMARK    8  A    between atoms: C_11  and  O_12 
REMARK    9  A    between atoms: O_12  and  C_13 
REMARK   10  A    between atoms: C_13  and  C_14 
REMARK   11  A    between atoms: C_14  and  N_15 
REMARK       I    between atoms: C_23  and  N_31 
REMARK   12  A    between atoms: C_26  and  N_27 
REMARK   13  A    between atoms: N_27  and  C_28 
REMARK   14  A    between atoms: N_32  and  C_33 
REMARK   15  A    between atoms: C_33  and  C_35 
REMARK   16  A    between atoms: C_35  and  O_37 
REMARK   17  A    between atoms: O_37  and  C_38 
ROOT
HETATM    1  O   UNK N   1      33.191  17.413   8.034  0.00  0.00    -0.379 OA
ENDROOT
BRANCH   1   2
HETATM    2  C   UNK N   1      34.297  17.412   8.910  0.00  0.00     0.284 C 
BRANCH   2   3
HETATM    3  P   UNK N   1      34.889  15.696   9.366  0.00  0.00     0.272 P 
HETATM    4  O   UNK N   1      33.607  15.074   9.984  0.00  0.00    -0.273 OA
BRANCH   3   5
HETATM    5  N   UNK N   1      36.034  15.508  10.758  0.00  0.00    -0.341 N 
HETATM    6  H   UNK N   1      36.582  16.286  11.127  0.00  0.00     0.163 HD
BRANCH   5   7
HETATM    7  C   UNK N   1      36.115  14.152  11.313  0.00  0.00     0.180 C 
HETATM    8  C   UNK N   1      37.417  13.416  10.995  0.00  0.00     0.043 C 
BRANCH   7   9
HETATM    9  C   UNK N   1      35.760  14.135  12.780  0.00  0.00     0.281 C 
HETATM   10  O   UNK N   1      36.358  14.866  13.552  0.00  0.00    -0.263 OA
BRANCH   9  11
HETATM   11  O   UNK N   1      34.739  13.381  13.255  0.00  0.00    -0.320 OA
BRANCH  11  12
HETATM   12  C   UNK N   1      34.847  12.580  14.366  0.00  0.00     0.174 C 
HETATM   13  C   UNK N   1      34.206  11.242  14.077  0.00  0.00     0.034 C 
ENDBRANCH  11  12
ENDBRANCH   9  11
ENDBRANCH   7   9
ENDBRANCH   5   7
ENDBRANCH   3   5
BRANCH   3  14
HETATM   14  N   UNK N   1      35.152  14.546   7.988  0.00  0.00    -0.341 N 
HETATM   15  H   UNK N   1      35.450  13.581   8.127  0.00  0.00     0.163 HD
BRANCH  14  16
HETATM   16  C   UNK N   1      34.904  15.109   6.662  0.00  0.00     0.180 C 
HETATM   17  C   UNK N   1      36.012  14.589   5.761  0.00  0.00     0.043 C 
BRANCH  16  18
HETATM   18  C   UNK N   1      33.575  14.712   6.036  0.00  0.00     0.281 C 
HETATM   19  O   UNK N   1      33.243  13.544   5.983  0.00  0.00    -0.263 OA
BRANCH  18  20
HETATM   20  O   UNK N   1      32.756  15.638   5.476  0.00  0.00    -0.320 OA
BRANCH  20  21
HETATM   21  C   UNK N   1      33.197  16.607   4.607  0.00  0.00     0.174 C 
HETATM   22  C   UNK N   1      33.257  16.031   3.206  0.00  0.00     0.034 C 
ENDBRANCH  20  21
ENDBRANCH  18  20
ENDBRANCH  16  18
ENDBRANCH  14  16
ENDBRANCH   3  14
ENDBRANCH   2   3
ENDBRANCH   1   2
BRANCH   1  23
HETATM   23  C   UNK N   1      32.047  17.908   8.690  0.00  0.00     0.188 C 
BRANCH  23  24
HETATM   24  C   UNK N   1      30.988  16.836   8.763  0.00  0.00     0.157 C 
BRANCH  24  25
HETATM   25  N   UNK N   1      29.754  17.452   8.343  0.00  0.00    -0.325 N 
HETATM   26  C   UNK N   1      28.859  18.062   9.155  0.00  0.00     0.185 A 
HETATM   27  N   UNK N   1      27.859  18.627   8.437  0.00  0.00    -0.346 N 
HETATM   28  C   UNK N   1      28.165  18.345   7.157  0.00  0.00     0.123 A 
ATOM     29  HN  UNK N   1      27.056  19.149   8.787  1.00  0.00     0.167 HD
HETATM   30  C   UNK N   1      29.303  17.635   7.103  0.00  0.00     0.155 A 
HETATM   31  C   UNK N   1      27.504  18.696   5.990  0.00  0.00     0.148 A 
HETATM   32  N   UNK N   1      29.859  17.222   5.941  0.00  0.00    -0.174 N 
HETATM   33  C   UNK N   1      29.214  17.546   4.775  0.00  0.00     0.679 A 
ATOM     34  HN  UNK N   1      30.727  16.688   5.932  1.00  0.00     0.186 HD
HETATM   35  N   UNK N   1      28.052  18.285   4.806  0.00  0.00    -0.175 N 
HETATM   36  N   UNK N   1      29.738  17.113   3.542  0.00  0.00    -0.234 N 
ATOM     37  HN  UNK N   1      27.592  18.531   3.929  1.00  0.00     0.186 HD
HETATM   38  H   UNK N   1      29.155  17.022   2.753  0.00  0.00     0.174 HD
HETATM   39  H   UNK N   1      30.696  16.899   3.467  0.00  0.00     0.174 HD
BRANCH  31  40
HETATM   40  N   UNK N   1      26.312  19.468   6.008  0.00  0.00    -0.369 N 
HETATM   41  H   UNK N   1      25.472  19.045   6.299  0.00  0.00     0.161 HD
BRANCH  40  42
HETATM   42  C   UNK N   1      26.301  20.857   5.610  0.00  0.00     0.083 A 
HETATM   43  C   UNK N   1      27.513  21.559   6.177  0.00  0.00     0.027 A 
HETATM   44  C   UNK N   1      26.160  21.743   6.830  0.00  0.00     0.027 A 
ENDBRANCH  40  42
ENDBRANCH  31  40
ENDBRANCH  24  25
ENDBRANCH  23  24
ENDBRANCH   1  23
TORSDOF 17
ENDMDL
MODEL 4
REMARK VINA RESULT:      -6.4      7.722     13.137
REMARK  17 active torsions:
REMARK  status: ('A' for Active; 'I' for Inactive)
REMARK    1  A    between atoms: C_2  and  O_3 
REMARK    2  A    between atoms: O_3  and  C_4 
REMARK    3  A    between atoms: C_4  and  C_6 
REMARK    4  A    between atoms: C_6  and  N_8 
REMARK    5  A    between atoms: N_8  and  P_9 
REMARK    6  A    between atoms: P_9  and  C_11 
REMARK    7  A    between atoms: P_9  and  N_32 
REMARK    8  A    between atoms: C_11  and  O_12 
REMARK    9  A    between atoms: O_12  and  C_13 
REMARK   10  A    between atoms: C_13  and  C_14 
REMARK   11  A    between atoms: C_14  and  N_15 
REMARK       I    between atoms: C_23  and  N_31 
REMARK   12  A    between atoms: C_26  and  N_27 
REMARK   13  A    between atoms: N_27  and  C_28 
REMARK   14  A    between atoms: N_32  and  C_33 
REMARK   15  A    between atoms: C_33  and  C_35 
REMARK   16  A    between atoms: C_35  and  O_37 
REMARK   17  A    between atoms: O_37  and  C_38 
ROOT
HETATM    1  O   UNK N   1      24.951  16.047   4.644  0.00  0.00    -0.379 OA
ENDROOT
BRANCH   1   2
HETATM    2  C   UNK N   1      23.871  16.421   3.817  0.00  0.00     0.284 C 
BRANCH   2   3
HETATM    3  P   UNK N   1      22.254  16.617   4.739  0.00  0.00     0.272 P 
HETATM    4  O   UNK N   1      22.746  16.835   6.195  0.00  0.00    -0.273 OA
BRANCH   3   5
HETATM    5  N   UNK N   1      21.200  15.162   4.974  0.00  0.00    -0.341 N 
HETATM    6  H   UNK N   1      21.559  14.275   5.329  0.00  0.00     0.163 HD
BRANCH   5   7
HETATM    7  C   UNK N   1      19.789  15.357   4.616  0.00  0.00     0.180 C 
HETATM    8  C   UNK N   1      19.114  14.122   4.020  0.00  0.00     0.043 C 
BRANCH   7   9
HETATM    9  C   UNK N   1      19.013  15.974   5.753  0.00  0.00     0.281 C 
HETATM   10  O   UNK N   1      17.806  15.804   5.820  0.00  0.00    -0.263 OA
BRANCH   9  11
HETATM   11  O   UNK N   1      19.631  16.653   6.750  0.00  0.00    -0.320 OA
BRANCH  11  12
HETATM   12  C   UNK N   1      19.335  16.476   8.080  0.00  0.00     0.174 C 
HETATM   13  C   UNK N   1      20.505  15.809   8.765  0.00  0.00     0.034 C 
ENDBRANCH  11  12
ENDBRANCH   9  11
ENDBRANCH   7   9
ENDBRANCH   5   7
ENDBRANCH   3   5
BRANCH   3  14
HETATM   14  N   UNK N   1      21.369  18.180   4.479  0.00  0.00    -0.341 N 
HETATM   15  H   UNK N   1      20.823  18.629   5.214  0.00  0.00     0.163 HD
BRANCH  14  16
HETATM   16  C   UNK N   1      21.498  18.744   3.138  0.00  0.00     0.180 C 
HETATM   17  C   UNK N   1      20.189  18.454   2.422  0.00  0.00     0.043 C 
BRANCH  16  18
HETATM   18  C   UNK N   1      21.724  20.248   3.094  0.00  0.00     0.281 C 
HETATM   19  O   UNK N   1      20.784  21.015   3.167  0.00  0.00    -0.263 OA
BRANCH  18  20
HETATM   20  O   UNK N   1      22.966  20.769   2.921  0.00  0.00    -0.320 OA
BRANCH  20  21
HETATM   21  C   UNK N   1      24.111  20.148   3.359  0.00  0.00     0.174 C 
HETATM   22  C   UNK N   1      25.271  20.558   2.473  0.00  0.00     0.034 C 
ENDBRANCH  20  21
ENDBRANCH  18  20
ENDBRANCH  16  18
ENDBRANCH  14  16
ENDBRANCH   3  14
ENDBRANCH   2   3
ENDBRANCH   1   2
BRANCH   1  23
HETATM   23  C   UNK N   1      26.148  16.014   3.902  0.00  0.00     0.188 C 
BRANCH  23  24
HETATM   24  C   UNK N   1      26.801  17.375   3.914  0.00  0.00     0.157 C 
BRANCH  24  25
HETATM   25  N   UNK N   1      28.100  17.197   4.514  0.00  0.00    -0.325 N 
HETATM   26  C   UNK N   1      29.228  16.832   3.862  0.00  0.00     0.185 A 
HETATM   27  N   UNK N   1      30.298  16.855   4.693  0.00  0.00    -0.346 N 
HETATM   28  C   UNK N   1      29.793  17.244   5.878  0.00  0.00     0.123 A 
ATOM     29  HN  UNK N   1      31.267  16.629   4.471  1.00  0.00     0.167 HD
HETATM   30  C   UNK N   1      28.470  17.446   5.770  0.00  0.00     0.155 A 
HETATM   31  C   UNK N   1      30.437  17.463   7.087  0.00  0.00     0.148 A 
HETATM   32  N   UNK N   1      27.700  17.857   6.804  0.00  0.00    -0.174 N 
HETATM   33  C   UNK N   1      28.314  18.065   8.012  0.00  0.00     0.679 A 
ATOM     34  HN  UNK N   1      26.698  18.006   6.689  1.00  0.00     0.186 HD
HETATM   35  N   UNK N   1      29.672  17.877   8.143  0.00  0.00    -0.175 N 
HETATM   36  N   UNK N   1      27.550  18.464   9.126  0.00  0.00    -0.234 N 
ATOM     37  HN  UNK N   1      30.117  18.050   9.045  1.00  0.00     0.186 HD
HETATM   38  H   UNK N   1      27.868  18.291  10.041  0.00  0.00     0.174 HD
HETATM   39  H   UNK N   1      26.688  18.920   8.987  0.00  0.00     0.174 HD
BRANCH  31  40
HETATM   40  N   UNK N   1      31.838  17.285   7.231  0.00  0.00    -0.369 N 
HETATM   41  H   UNK N   1      32.317  16.716   6.586  0.00  0.00     0.161 HD
BRANCH  40  42
HETATM   42  C   UNK N   1      32.577  17.914   8.301  0.00  0.00     0.083 A 
HETATM   43  C   UNK N   1      33.999  18.170   7.857  0.00  0.00     0.027 A 
HETATM   44  C   UNK N   1      33.691  17.001   8.768  0.00  0.00     0.027 A 
ENDBRANCH  40  42
ENDBRANCH  31  40
ENDBRANCH  24  25
ENDBRANCH  23  24
ENDBRANCH   1  23
TORSDOF 17
ENDMDL
MODEL 5
REMARK VINA RESULT:      -6.3      3.129      9.666
REMARK  17 active torsions:
REMARK  status: ('A' for Active; 'I' for Inactive)
REMARK    1  A    between atoms: C_2  and  O_3 
REMARK    2  A    between atoms: O_3  and  C_4 
REMARK    3  A    between atoms: C_4  and  C_6 
REMARK    4  A    between atoms: C_6  and  N_8 
REMARK    5  A    between atoms: N_8  and  P_9 
REMARK    6  A    between atoms: P_9  and  C_11 
REMARK    7  A    between atoms: P_9  and  N_32 
REMARK    8  A    between atoms: C_11  and  O_12 
REMARK    9  A    between atoms: O_12  and  C_13 
REMARK   10  A    between atoms: C_13  and  C_14 
REMARK   11  A    between atoms: C_14  and  N_15 
REMARK       I    between atoms: C_23  and  N_31 
REMARK   12  A    between atoms: C_26  and  N_27 
REMARK   13  A    between atoms: N_27  and  C_28 
REMARK   14  A    between atoms: N_32  and  C_33 
REMARK   15  A    between atoms: C_33  and  C_35 
REMARK   16  A    between atoms: C_35  and  O_37 
REMARK   17  A    between atoms: O_37  and  C_38 
ROOT
HETATM    1  O   UNK N   1      34.975  15.908   9.196  0.00  0.00    -0.379 OA
ENDROOT
BRANCH   1   2
HETATM    2  C   UNK N   1      34.261  17.073   8.847  0.00  0.00     0.284 C 
BRANCH   2   3
HETATM    3  P   UNK N   1      32.529  16.731   8.223  0.00  0.00     0.272 P 
HETATM    4  O   UNK N   1      32.009  15.717   9.277  0.00  0.00    -0.273 OA
BRANCH   3   5
HETATM    5  N   UNK N   1      32.322  15.752   6.713  0.00  0.00    -0.341 N 
HETATM    6  H   UNK N   1      32.363  14.732   6.709  0.00  0.00     0.163 HD
BRANCH   5   7
HETATM    7  C   UNK N   1      32.091  16.538   5.494  0.00  0.00     0.180 C 
HETATM    8  C   UNK N   1      33.246  17.463   5.112  0.00  0.00     0.043 C 
BRANCH   7   9
HETATM    9  C   UNK N   1      31.622  15.664   4.356  0.00  0.00     0.281 C 
HETATM   10  O   UNK N   1      30.530  15.124   4.423  0.00  0.00    -0.263 OA
BRANCH   9  11
HETATM   11  O   UNK N   1      32.349  15.523   3.222  0.00  0.00    -0.320 OA
BRANCH  11  12
HETATM   12  C   UNK N   1      32.818  14.312   2.772  0.00  0.00     0.174 C 
HETATM   13  C   UNK N   1      34.317  14.261   2.955  0.00  0.00     0.034 C 
ENDBRANCH  11  12
ENDBRANCH   9  11
ENDBRANCH   7   9
ENDBRANCH   5   7
ENDBRANCH   3   5
BRANCH   3  14
HETATM   14  N   UNK N   1      31.317  18.061   8.455  0.00  0.00    -0.341 N 
HETATM   15  H   UNK N   1      31.583  19.045   8.492  0.00  0.00     0.163 HD
BRANCH  14  16
HETATM   16  C   UNK N   1      29.932  17.615   8.585  0.00  0.00     0.180 C 
HETATM   17  C   UNK N   1      29.389  18.263   9.847  0.00  0.00     0.043 C 
BRANCH  16  18
HETATM   18  C   UNK N   1      29.021  18.012   7.433  0.00  0.00     0.281 C 
HETATM   19  O   UNK N   1      28.833  17.250   6.505  0.00  0.00    -0.263 OA
BRANCH  18  20
HETATM   20  O   UNK N   1      28.439  19.238   7.385  0.00  0.00    -0.320 OA
BRANCH  20  21
HETATM   21  C   UNK N   1      27.531  19.603   6.419  0.00  0.00     0.174 C 
HETATM   22  C   UNK N   1      27.557  21.110   6.254  0.00  0.00     0.034 C 
ENDBRANCH  20  21
ENDBRANCH  18  20
ENDBRANCH  16  18
ENDBRANCH  14  16
ENDBRANCH   3  14
ENDBRANCH   2   3
ENDBRANCH   1   2
BRANCH   1  23
HETATM   23  C   UNK N   1      35.264  15.906  10.575  0.00  0.00     0.188 C 
BRANCH  23  24
HETATM   24  C   UNK N   1      36.325  14.876  10.880  0.00  0.00     0.157 C 
BRANCH  24  25
HETATM   25  N   UNK N   1      35.793  14.042  11.928  0.00  0.00    -0.325 N 
HETATM   26  C   UNK N   1      35.018  12.947  11.750  0.00  0.00     0.185 A 
HETATM   27  N   UNK N   1      34.772  12.329  12.930  0.00  0.00    -0.346 N 
HETATM   28  C   UNK N   1      35.417  13.080  13.842  0.00  0.00     0.123 A 
ATOM     29  HN  UNK N   1      34.221  11.486  13.091  1.00  0.00     0.167 HD
HETATM   30  C   UNK N   1      36.028  14.112  13.238  0.00  0.00     0.155 A 
HETATM   31  C   UNK N   1      35.530  12.906  15.213  0.00  0.00     0.148 A 
HETATM   32  N   UNK N   1      36.765  15.026  13.909  0.00  0.00    -0.174 N 
HETATM   33  C   UNK N   1      36.878  14.882  15.268  0.00  0.00     0.679 A 
ATOM     34  HN  UNK N   1      37.221  15.797  13.421  1.00  0.00     0.186 HD
HETATM   35  N   UNK N   1      36.271  13.823  15.906  0.00  0.00    -0.175 N 
HETATM   36  N   UNK N   1      37.610  15.825  16.013  0.00  0.00    -0.234 N 
ATOM     37  HN  UNK N   1      36.377  13.721  16.916  1.00  0.00     0.186 HD
HETATM   38  H   UNK N   1      37.432  15.954  16.973  0.00  0.00     0.174 HD
HETATM   39  H   UNK N   1      38.307  16.362  15.570  0.00  0.00     0.174 HD
BRANCH  31  40
HETATM   40  N   UNK N   1      34.919  11.812  15.881  0.00  0.00    -0.369 N 
HETATM   41  H   UNK N   1      33.950  11.671  15.782  0.00  0.00     0.161 HD
BRANCH  40  42
HETATM   42  C   UNK N   1      35.684  10.901  16.702  0.00  0.00     0.083 A 
HETATM   43  C   UNK N   1      34.777   9.823  17.247  0.00  0.00     0.027 A 
HETATM   44  C   UNK N   1      35.203  10.971  18.137  0.00  0.00     0.027 A 
ENDBRANCH  40  42
ENDBRANCH  31  40
ENDBRANCH  24  25
ENDBRANCH  23  24
ENDBRANCH   1  23
TORSDOF 17
ENDMDL
MODEL 6
REMARK VINA RESULT:      -6.3      7.007     11.607
REMARK  17 active torsions:
REMARK  status: ('A' for Active; 'I' for Inactive)
REMARK    1  A    between atoms: C_2  and  O_3 
REMARK    2  A    between atoms: O_3  and  C_4 
REMARK    3  A    between atoms: C_4  and  C_6 
REMARK    4  A    between atoms: C_6  and  N_8 
REMARK    5  A    between atoms: N_8  and  P_9 
REMARK    6  A    between atoms: P_9  and  C_11 
REMARK    7  A    between atoms: P_9  and  N_32 
REMARK    8  A    between atoms: C_11  and  O_12 
REMARK    9  A    between atoms: O_12  and  C_13 
REMARK   10  A    between atoms: C_13  and  C_14 
REMARK   11  A    between atoms: C_14  and  N_15 
REMARK       I    between atoms: C_23  and  N_31 
REMARK   12  A    between atoms: C_26  and  N_27 
REMARK   13  A    between atoms: N_27  and  C_28 
REMARK   14  A    between atoms: N_32  and  C_33 
REMARK   15  A    between atoms: C_33  and  C_35 
REMARK   16  A    between atoms: C_35  and  O_37 
REMARK   17  A    between atoms: O_37  and  C_38 
ROOT
HETATM    1  O   UNK N   1      25.809  16.611   5.377  0.00  0.00    -0.379 OA
ENDROOT
BRANCH   1   2
HETATM    2  C   UNK N   1      24.910  15.705   5.977  0.00  0.00     0.284 C 
BRANCH   2   3
HETATM    3  P   UNK N   1      23.114  16.199   5.793  0.00  0.00     0.272 P 
HETATM    4  O   UNK N   1      22.792  15.689   4.363  0.00  0.00    -0.273 OA
BRANCH   3   5
HETATM    5  N   UNK N   1      22.706  17.954   5.603  0.00  0.00    -0.341 N 
HETATM    6  H   UNK N   1      22.742  18.614   6.381  0.00  0.00     0.163 HD
BRANCH   5   7
HETATM    7  C   UNK N   1      22.319  18.355   4.244  0.00  0.00     0.180 C 
HETATM    8  C   UNK N   1      20.847  18.738   4.095  0.00  0.00     0.043 C 
BRANCH   7   9
HETATM    9  C   UNK N   1      23.267  19.387   3.684  0.00  0.00     0.281 C 
HETATM   10  O   UNK N   1      22.821  20.423   3.218  0.00  0.00    -0.263 OA
BRANCH   9  11
HETATM   11  O   UNK N   1      24.611  19.230   3.754  0.00  0.00    -0.320 OA
BRANCH  11  12
HETATM   12  C   UNK N   1      25.501  20.057   3.113  0.00  0.00     0.174 C 
HETATM   13  C   UNK N   1      26.588  20.463   4.082  0.00  0.00     0.034 C 
ENDBRANCH  11  12
ENDBRANCH   9  11
ENDBRANCH   7   9
ENDBRANCH   5   7
ENDBRANCH   3   5
BRANCH   3  14
HETATM   14  N   UNK N   1      21.914  15.224   6.743  0.00  0.00    -0.341 N 
HETATM   15  H   UNK N   1      21.917  14.205   6.747  0.00  0.00     0.163 HD
BRANCH  14  16
HETATM   16  C   UNK N   1      20.945  16.012   7.501  0.00  0.00     0.180 C 
HETATM   17  C   UNK N   1      19.760  16.239   6.578  0.00  0.00     0.043 C 
BRANCH  16  18
HETATM   18  C   UNK N   1      20.424  15.343   8.764  0.00  0.00     0.281 C 
HETATM   19  O   UNK N   1      19.268  15.491   9.109  0.00  0.00    -0.263 OA
BRANCH  18  20
HETATM   20  O   UNK N   1      21.242  14.611   9.563  0.00  0.00    -0.320 OA
BRANCH  20  21
HETATM   21  C   UNK N   1      20.873  13.412  10.123  0.00  0.00     0.174 C 
HETATM   22  C   UNK N   1      22.115  12.663  10.565  0.00  0.00     0.034 C 
ENDBRANCH  20  21
ENDBRANCH  18  20
ENDBRANCH  16  18
ENDBRANCH  14  16
ENDBRANCH   3  14
ENDBRANCH   2   3
ENDBRANCH   1   2
BRANCH   1  23
HETATM   23  C   UNK N   1      26.523  15.978   4.340  0.00  0.00     0.188 C 
BRANCH  23  24
HETATM   24  C   UNK N   1      27.516  16.940   3.734  0.00  0.00     0.157 C 
BRANCH  24  25
HETATM   25  N   UNK N   1      28.749  16.765   4.462  0.00  0.00    -0.325 N 
HETATM   26  C   UNK N   1      29.902  16.270   3.957  0.00  0.00     0.185 A 
HETATM   27  N   UNK N   1      30.899  16.332   4.872  0.00  0.00    -0.346 N 
HETATM   28  C   UNK N   1      30.323  16.878   5.958  0.00  0.00     0.123 A 
ATOM     29  HN  UNK N   1      31.868  16.032   4.761  1.00  0.00     0.167 HD
HETATM   30  C   UNK N   1      29.028  17.135   5.711  0.00  0.00     0.155 A 
HETATM   31  C   UNK N   1      30.878  17.199   7.188  0.00  0.00     0.148 A 
HETATM   32  N   UNK N   1      28.203  17.699   6.622  0.00  0.00    -0.174 N 
HETATM   33  C   UNK N   1      28.727  18.011   7.851  0.00  0.00     0.679 A 
ATOM     34  HN  UNK N   1      27.225  17.886   6.404  1.00  0.00     0.186 HD
HETATM   35  N   UNK N   1      30.056  17.769   8.121  0.00  0.00    -0.175 N 
HETATM   36  N   UNK N   1      27.900  18.573   8.842  0.00  0.00    -0.234 N 
ATOM     37  HN  UNK N   1      30.434  18.020   9.035  1.00  0.00     0.186 HD
HETATM   38  H   UNK N   1      28.130  18.488   9.796  0.00  0.00     0.174 HD
HETATM   39  H   UNK N   1      27.082  19.054   8.579  0.00  0.00     0.174 HD
BRANCH  31  40
HETATM   40  N   UNK N   1      32.249  16.966   7.474  0.00  0.00    -0.369 N 
HETATM   41  H   UNK N   1      32.759  16.349   6.902  0.00  0.00     0.161 HD
BRANCH  40  42
HETATM   42  C   UNK N   1      32.912  17.609   8.585  0.00  0.00     0.083 A 
HETATM   43  C   UNK N   1      34.127  18.358   8.088  0.00  0.00     0.027 A 
HETATM   44  C   UNK N   1      34.295  17.019   8.773  0.00  0.00     0.027 A 
ENDBRANCH  40  42
ENDBRANCH  31  40
ENDBRANCH  24  25
ENDBRANCH  23  24
ENDBRANCH   1  23
TORSDOF 17
ENDMDL
MODEL 7
REMARK VINA RESULT:      -6.2      8.589     13.520
REMARK  17 active torsions:
REMARK  status: ('A' for Active; 'I' for Inactive)
REMARK    1  A    between atoms: C_2  and  O_3 
REMARK    2  A    between atoms: O_3  and  C_4 
REMARK    3  A    between atoms: C_4  and  C_6 
REMARK    4  A    between atoms: C_6  and  N_8 
REMARK    5  A    between atoms: N_8  and  P_9 
REMARK    6  A    between atoms: P_9  and  C_11 
REMARK    7  A    between atoms: P_9  and  N_32 
REMARK    8  A    between atoms: C_11  and  O_12 
REMARK    9  A    between atoms: O_12  and  C_13 
REMARK   10  A    between atoms: C_13  and  C_14 
REMARK   11  A    between atoms: C_14  and  N_15 
REMARK       I    between atoms: C_23  and  N_31 
REMARK   12  A    between atoms: C_26  and  N_27 
REMARK   13  A    between atoms: N_27  and  C_28 
REMARK   14  A    between atoms: N_32  and  C_33 
REMARK   15  A    between atoms: C_33  and  C_35 
REMARK   16  A    between atoms: C_35  and  O_37 
REMARK   17  A    between atoms: O_37  and  C_38 
ROOT
HETATM    1  O   UNK N   1      23.475  18.801   4.227  0.00  0.00    -0.379 OA
ENDROOT
BRANCH   1   2
HETATM    2  C   UNK N   1      23.500  17.594   4.958  0.00  0.00     0.284 C 
BRANCH   2   3
HETATM    3  P   UNK N   1      21.862  17.168   5.757  0.00  0.00     0.272 P 
HETATM    4  O   UNK N   1      21.534  18.479   6.522  0.00  0.00    -0.273 OA
BRANCH   3   5
HETATM    5  N   UNK N   1      21.840  15.986   7.129  0.00  0.00    -0.341 N 
HETATM    6  H   UNK N   1      22.639  15.850   7.750  0.00  0.00     0.163 HD
BRANCH   5   7
HETATM    7  C   UNK N   1      20.586  15.238   7.281  0.00  0.00     0.180 C 
HETATM    8  C   UNK N   1      20.584  13.866   6.606  0.00  0.00     0.043 C 
BRANCH   7   9
HETATM    9  C   UNK N   1      20.140  15.197   8.722  0.00  0.00     0.281 C 
HETATM   10  O   UNK N   1      20.904  14.780   9.577  0.00  0.00    -0.263 OA
BRANCH   9  11
HETATM   11  O   UNK N   1      18.935  15.685   9.106  0.00  0.00    -0.320 OA
BRANCH  11  12
HETATM   12  C   UNK N   1      18.627  17.024   9.098  0.00  0.00     0.174 C 
HETATM   13  C   UNK N   1      17.129  17.188   8.969  0.00  0.00     0.034 C 
ENDBRANCH  11  12
ENDBRANCH   9  11
ENDBRANCH   7   9
ENDBRANCH   5   7
ENDBRANCH   3   5
BRANCH   3  14
HETATM   14  N   UNK N   1      20.426  17.094   4.649  0.00  0.00    -0.341 N 
HETATM   15  H   UNK N   1      19.549  16.649   4.918  0.00  0.00     0.163 HD
BRANCH  14  16
HETATM   16  C   UNK N   1      20.623  17.721   3.344  0.00  0.00     0.180 C 
HETATM   17  C   UNK N   1      20.296  16.662   2.306  0.00  0.00     0.043 C 
BRANCH  16  18
HETATM   18  C   UNK N   1      19.735  18.926   3.072  0.00  0.00     0.281 C 
HETATM   19  O   UNK N   1      18.603  18.775   2.654  0.00  0.00    -0.263 OA
BRANCH  18  20
HETATM   20  O   UNK N   1      20.195  20.192   3.235  0.00  0.00    -0.320 OA
BRANCH  20  21
HETATM   21  C   UNK N   1      21.252  20.706   2.522  0.00  0.00     0.174 C 
HETATM   22  C   UNK N   1      20.955  20.597   1.040  0.00  0.00     0.034 C 
ENDBRANCH  20  21
ENDBRANCH  18  20
ENDBRANCH  16  18
ENDBRANCH  14  16
ENDBRANCH   3  14
ENDBRANCH   2   3
ENDBRANCH   1   2
BRANCH   1  23
HETATM   23  C   UNK N   1      24.787  19.248   3.976  0.00  0.00     0.188 C 
BRANCH  23  24
HETATM   24  C   UNK N   1      25.533  19.419   5.277  0.00  0.00     0.157 C 
BRANCH  24  25
HETATM   25  N   UNK N   1      26.858  18.893   5.059  0.00  0.00    -0.325 N 
HETATM   26  C   UNK N   1      27.544  18.939   3.893  0.00  0.00     0.185 A 
HETATM   27  N   UNK N   1      28.798  18.451   4.048  0.00  0.00    -0.346 N 
HETATM   28  C   UNK N   1      28.862  18.100   5.346  0.00  0.00     0.123 A 
ATOM     29  HN  UNK N   1      29.528  18.367   3.341  1.00  0.00     0.167 HD
HETATM   30  C   UNK N   1      27.693  18.363   5.951  0.00  0.00     0.155 A 
HETATM   31  C   UNK N   1      29.919  17.566   6.068  0.00  0.00     0.148 A 
HETATM   32  N   UNK N   1      27.474  18.125   7.265  0.00  0.00    -0.174 N 
HETATM   33  C   UNK N   1      28.501  17.582   7.994  0.00  0.00     0.679 A 
ATOM     34  HN  UNK N   1      26.576  18.340   7.697  1.00  0.00     0.186 HD
HETATM   35  N   UNK N   1      29.713  17.317   7.397  0.00  0.00    -0.175 N 
HETATM   36  N   UNK N   1      28.311  17.288   9.358  0.00  0.00    -0.234 N 
ATOM     37  HN  UNK N   1      30.472  16.927   7.957  1.00  0.00     0.186 HD
HETATM   38  H   UNK N   1      28.866  16.611   9.808  0.00  0.00     0.174 HD
HETATM   39  H   UNK N   1      27.615  17.764   9.867  0.00  0.00     0.174 HD
BRANCH  31  40
HETATM   40  N   UNK N   1      31.177  17.298   5.466  0.00  0.00    -0.369 N 
HETATM   41  H   UNK N   1      31.934  17.899   5.651  0.00  0.00     0.161 HD
BRANCH  40  42
HETATM   42  C   UNK N   1      31.373  16.168   4.588  0.00  0.00     0.083 A 
HETATM   43  C   UNK N   1      32.850  15.965   4.340  0.00  0.00     0.027 A 
HETATM   44  C   UNK N   1      31.992  16.627   3.284  0.00  0.00     0.027 A 
ENDBRANCH  40  42
ENDBRANCH  31  40
ENDBRANCH  24  25
ENDBRANCH  23  24
ENDBRANCH   1  23
TORSDOF 17
ENDMDL
MODEL 8
REMARK VINA RESULT:      -6.2      2.392      4.056
REMARK  17 active torsions:
REMARK  status: ('A' for Active; 'I' for Inactive)
REMARK    1  A    between atoms: C_2  and  O_3 
REMARK    2  A    between atoms: O_3  and  C_4 
REMARK    3  A    between atoms: C_4  and  C_6 
REMARK    4  A    between atoms: C_6  and  N_8 
REMARK    5  A    between atoms: N_8  and  P_9 
REMARK    6  A    between atoms: P_9  and  C_11 
REMARK    7  A    between atoms: P_9  and  N_32 
REMARK    8  A    between atoms: C_11  and  O_12 
REMARK    9  A    between atoms: O_12  and  C_13 
REMARK   10  A    between atoms: C_13  and  C_14 
REMARK   11  A    between atoms: C_14  and  N_15 
REMARK       I    between atoms: C_23  and  N_31 
REMARK   12  A    between atoms: C_26  and  N_27 
REMARK   13  A    between atoms: N_27  and  C_28 
REMARK   14  A    between atoms: N_32  and  C_33 
REMARK   15  A    between atoms: C_33  and  C_35 
REMARK   16  A    between atoms: C_35  and  O_37 
REMARK   17  A    between atoms: O_37  and  C_38 
ROOT
HETATM    1  O   UNK N   1      34.081  17.398   9.252  0.00  0.00    -0.379 OA
ENDROOT
BRANCH   1   2
HETATM    2  C   UNK N   1      33.988  16.003   9.441  0.00  0.00     0.284 C 
BRANCH   2   3
HETATM    3  P   UNK N   1      35.541  15.238  10.153  0.00  0.00     0.272 P 
HETATM    4  O   UNK N   1      36.278  16.485  10.713  0.00  0.00    -0.273 OA
BRANCH   3   5
HETATM    5  N   UNK N   1      36.804  14.607   9.018  0.00  0.00    -0.341 N 
HETATM    6  H   UNK N   1      37.792  14.849   9.105  0.00  0.00     0.163 HD
BRANCH   5   7
HETATM    7  C   UNK N   1      36.299  13.720   7.963  0.00  0.00     0.180 C 
HETATM    8  C   UNK N   1      35.146  12.815   8.398  0.00  0.00     0.043 C 
BRANCH   7   9
HETATM    9  C   UNK N   1      36.015  14.482   6.692  0.00  0.00     0.281 C 
HETATM   10  O   UNK N   1      36.940  14.796   5.960  0.00  0.00    -0.263 OA
BRANCH   9  11
HETATM   11  O   UNK N   1      34.749  14.763   6.299  0.00  0.00    -0.320 OA
BRANCH  11  12
HETATM   12  C   UNK N   1      34.411  15.894   5.596  0.00  0.00     0.174 C 
HETATM   13  C   UNK N   1      33.462  15.520   4.480  0.00  0.00     0.034 C 
ENDBRANCH  11  12
ENDBRANCH   9  11
ENDBRANCH   7   9
ENDBRANCH   5   7
ENDBRANCH   3   5
BRANCH   3  14
HETATM   14  N   UNK N   1      35.336  14.291  11.687  0.00  0.00    -0.341 N 
HETATM   15  H   UNK N   1      34.428  13.957  12.008  0.00  0.00     0.163 HD
BRANCH  14  16
HETATM   16  C   UNK N   1      36.571  14.043  12.427  0.00  0.00     0.180 C 
HETATM   17  C   UNK N   1      36.191  14.005  13.897  0.00  0.00     0.043 C 
BRANCH  16  18
HETATM   18  C   UNK N   1      37.264  12.730  12.095  0.00  0.00     0.281 C 
HETATM   19  O   UNK N   1      37.249  11.807  12.886  0.00  0.00    -0.263 OA
BRANCH  18  20
HETATM   20  O   UNK N   1      37.958  12.571  10.938  0.00  0.00    -0.320 OA
BRANCH  20  21
HETATM   21  C   UNK N   1      38.121  11.355  10.319  0.00  0.00     0.174 C 
HETATM   22  C   UNK N   1      39.164  11.487   9.227  0.00  0.00     0.034 C 
ENDBRANCH  20  21
ENDBRANCH  18  20
ENDBRANCH  16  18
ENDBRANCH  14  16
ENDBRANCH   3  14
ENDBRANCH   2   3
ENDBRANCH   1   2
BRANCH   1  23
HETATM   23  C   UNK N   1      33.001  17.860   8.474  0.00  0.00     0.188 C 
BRANCH  23  24
HETATM   24  C   UNK N   1      32.053  16.723   8.180  0.00  0.00     0.157 C 
BRANCH  24  25
HETATM   25  N   UNK N   1      30.743  17.311   8.047  0.00  0.00    -0.325 N 
HETATM   26  C   UNK N   1      30.027  17.879   9.045  0.00  0.00     0.185 A 
HETATM   27  N   UNK N   1      28.883  18.427   8.570  0.00  0.00    -0.346 N 
HETATM   28  C   UNK N   1      28.915  18.177   7.248  0.00  0.00     0.123 A 
ATOM     29  HN  UNK N   1      28.159  18.918   9.096  1.00  0.00     0.167 HD
HETATM   30  C   UNK N   1      30.033  17.502   6.936  0.00  0.00     0.155 A 
HETATM   31  C   UNK N   1      28.011  18.530   6.257  0.00  0.00     0.148 A 
HETATM   32  N   UNK N   1      30.338  17.127   5.672  0.00  0.00    -0.174 N 
HETATM   33  C   UNK N   1      29.451  17.453   4.679  0.00  0.00     0.679 A 
ATOM     34  HN  UNK N   1      31.198  16.620   5.466  1.00  0.00     0.186 HD
HETATM   35  N   UNK N   1      28.304  18.157   4.974  0.00  0.00    -0.175 N 
HETATM   36  N   UNK N   1      29.710  17.058   3.352  0.00  0.00    -0.234 N 
ATOM     37  HN  UNK N   1      27.661  18.404   4.222  1.00  0.00     0.186 HD
HETATM   38  H   UNK N   1      28.975  16.964   2.704  0.00  0.00     0.174 HD
HETATM   39  H   UNK N   1      30.636  16.874   3.070  0.00  0.00     0.174 HD
BRANCH  31  40
HETATM   40  N   UNK N   1      26.832  19.265   6.548  0.00  0.00    -0.369 N 
HETATM   41  H   UNK N   1      26.207  18.920   7.225  0.00  0.00     0.161 HD
BRANCH  40  42
HETATM   42  C   UNK N   1      26.526  20.506   5.874  0.00  0.00     0.083 A 
HETATM   43  C   UNK N   1      27.582  21.537   6.199  0.00  0.00     0.027 A 
HETATM   44  C   UNK N   1      26.237  21.590   6.892  0.00  0.00     0.027 A 
ENDBRANCH  40  42
ENDBRANCH  31  40
ENDBRANCH  24  25
ENDBRANCH  23  24
ENDBRANCH   1  23
TORSDOF 17
ENDMDL
MODEL 9
REMARK VINA RESULT:      -6.2      7.312     11.633
REMARK  17 active torsions:
REMARK  status: ('A' for Active; 'I' for Inactive)
REMARK    1  A    between atoms: C_2  and  O_3 
REMARK    2  A    between atoms: O_3  and  C_4 
REMARK    3  A    between atoms: C_4  and  C_6 
REMARK    4  A    between atoms: C_6  and  N_8 
REMARK    5  A    between atoms: N_8  and  P_9 
REMARK    6  A    between atoms: P_9  and  C_11 
REMARK    7  A    between atoms: P_9  and  N_32 
REMARK    8  A    between atoms: C_11  and  O_12 
REMARK    9  A    between atoms: O_12  and  C_13 
REMARK   10  A    between atoms: C_13  and  C_14 
REMARK   11  A    between atoms: C_14  and  N_15 
REMARK       I    between atoms: C_23  and  N_31 
REMARK   12  A    between atoms: C_26  and  N_27 
REMARK   13  A    between atoms: N_27  and  C_28 
REMARK   14  A    between atoms: N_32  and  C_33 
REMARK   15  A    between atoms: C_33  and  C_35 
REMARK   16  A    between atoms: C_35  and  O_37 
REMARK   17  A    between atoms: O_37  and  C_38 
ROOT
HETATM    1  O   UNK N   1      25.676  14.704   4.977  0.00  0.00    -0.379 OA
ENDROOT
BRANCH   1   2
HETATM    2  C   UNK N   1      24.896  15.654   5.671  0.00  0.00     0.284 C 
BRANCH   2   3
HETATM    3  P   UNK N   1      23.146  15.084   6.010  0.00  0.00     0.272 P 
HETATM    4  O   UNK N   1      22.547  15.038   4.578  0.00  0.00    -0.273 OA
BRANCH   3   5
HETATM    5  N   UNK N   1      21.990  16.233   6.800  0.00  0.00    -0.341 N 
HETATM    6  H   UNK N   1      21.964  16.377   7.810  0.00  0.00     0.163 HD
BRANCH   5   7
HETATM    7  C   UNK N   1      21.095  16.942   5.877  0.00  0.00     0.180 C 
HETATM    8  C   UNK N   1      19.721  16.293   5.710  0.00  0.00     0.043 C 
BRANCH   7   9
HETATM    9  C   UNK N   1      21.027  18.415   6.198  0.00  0.00     0.281 C 
HETATM   10  O   UNK N   1      20.956  18.775   7.362  0.00  0.00    -0.263 OA
BRANCH   9  11
HETATM   11  O   UNK N   1      21.120  19.357   5.229  0.00  0.00    -0.320 OA
BRANCH  11  12
HETATM   12  C   UNK N   1      21.526  19.081   3.945  0.00  0.00     0.174 C 
HETATM   13  C   UNK N   1      20.341  19.198   3.014  0.00  0.00     0.034 C 
ENDBRANCH  11  12
ENDBRANCH   9  11
ENDBRANCH   7   9
ENDBRANCH   5   7
ENDBRANCH   3   5
BRANCH   3  14
HETATM   14  N   UNK N   1      22.948  13.343   6.480  0.00  0.00    -0.341 N 
HETATM   15  H   UNK N   1      23.741  12.709   6.584  0.00  0.00     0.163 HD
BRANCH  14  16
HETATM   16  C   UNK N   1      21.568  12.917   6.697  0.00  0.00     0.180 C 
HETATM   17  C   UNK N   1      21.527  11.426   6.408  0.00  0.00     0.043 C 
BRANCH  16  18
HETATM   18  C   UNK N   1      21.048  13.128   8.111  0.00  0.00     0.281 C 
HETATM   19  O   UNK N   1      20.242  14.007   8.347  0.00  0.00    -0.263 OA
BRANCH  18  20
HETATM   20  O   UNK N   1      21.505  12.382   9.149  0.00  0.00    -0.320 OA
BRANCH  20  21
HETATM   21  C   UNK N   1      21.962  12.928  10.324  0.00  0.00     0.174 C 
HETATM   22  C   UNK N   1      22.936  11.965  10.976  0.00  0.00     0.034 C 
ENDBRANCH  20  21
ENDBRANCH  18  20
ENDBRANCH  16  18
ENDBRANCH  14  16
ENDBRANCH   3  14
ENDBRANCH   2   3
ENDBRANCH   1   2
BRANCH   1  23
HETATM   23  C   UNK N   1      26.283  15.296   3.852  0.00  0.00     0.188 C 
BRANCH  23  24
HETATM   24  C   UNK N   1      26.671  16.721   4.164  0.00  0.00     0.157 C 
BRANCH  24  25
HETATM   25  N   UNK N   1      28.001  16.668   4.719  0.00  0.00    -0.325 N 
HETATM   26  C   UNK N   1      29.117  16.280   4.061  0.00  0.00     0.185 A 
HETATM   27  N   UNK N   1      30.218  16.443   4.833  0.00  0.00    -0.346 N 
HETATM   28  C   UNK N   1      29.745  16.941   5.989  0.00  0.00     0.123 A 
ATOM     29  HN  UNK N   1      31.187  16.234   4.592  1.00  0.00     0.167 HD
HETATM   30  C   UNK N   1      28.410  17.073   5.921  0.00  0.00     0.155 A 
HETATM   31  C   UNK N   1      30.427  17.323   7.135  0.00  0.00     0.148 A 
HETATM   32  N   UNK N   1      27.666  17.566   6.937  0.00  0.00    -0.174 N 
HETATM   33  C   UNK N   1      28.318  17.935   8.085  0.00  0.00     0.679 A 
ATOM     34  HN  UNK N   1      26.654  17.658   6.853  1.00  0.00     0.186 HD
HETATM   35  N   UNK N   1      29.688  17.822   8.173  0.00  0.00    -0.175 N 
HETATM   36  N   UNK N   1      27.583  18.425   9.181  0.00  0.00    -0.234 N 
ATOM     37  HN  UNK N   1      30.161  18.115   9.028  1.00  0.00     0.186 HD
HETATM   38  H   UNK N   1      27.946  18.371  10.095  0.00  0.00     0.174 HD
HETATM   39  H   UNK N   1      26.695  18.826   9.033  0.00  0.00     0.174 HD
BRANCH  31  40
HETATM   40  N   UNK N   1      31.840  17.222   7.233  0.00  0.00    -0.369 N 
HETATM   41  H   UNK N   1      32.326  16.661   6.586  0.00  0.00     0.161 HD
BRANCH  40  42
HETATM   42  C   UNK N   1      32.581  17.919   8.258  0.00  0.00     0.083 A 
HETATM   43  C   UNK N   1      33.999  18.154   7.791  0.00  0.00     0.027 A 
HETATM   44  C   UNK N   1      33.703  17.041   8.774  0.00  0.00     0.027 A 
ENDBRANCH  40  42
ENDBRANCH  31  40
ENDBRANCH  24  25
ENDBRANCH  23  24
ENDBRANCH   1  23
TORSDOF 17
ENDMDL
