MODEL 1
REMARK VINA RESULT:      -5.7      0.000      0.000
REMARK  3 active torsions:
REMARK  status: ('A' for Active; 'I' for Inactive)
REMARK    1  A    between atoms: C_2  and  C_3 
REMARK    2  A    between atoms: C_2  and  N_14 
REMARK    3  A    between atoms: C_3  and  C_5 
ROOT
HETATM    1  C   UNK N   1      33.346  17.650   7.395  0.00  0.00     0.015 A 
HETATM    2  C   UNK N   1      33.620  17.581   6.006  0.00  0.00     0.018 A 
HETATM    3  C   UNK N   1      32.596  17.336   5.078  0.00  0.00     0.040 A 
HETATM    4  C   UNK N   1      31.312  17.165   5.574  0.00  0.00     0.105 A 
HETATM    5  C   UNK N   1      31.032  17.226   6.880  0.00  0.00     0.105 A 
HETATM    6  C   UNK N   1      32.015  17.467   7.842  0.00  0.00     0.055 A 
HETATM    7  O   UNK N   1      29.728  17.026   7.058  0.00  0.00    -0.323 OA
HETATM    8  C   UNK N   1      29.137  16.826   5.804  0.00  0.00     0.352 A 
HETATM    9  O   UNK N   1      30.193  16.925   4.894  0.00  0.00    -0.323 OA
ENDROOT
BRANCH   1  10
HETATM   10  C   UNK N   1      34.436  17.910   8.375  0.00  0.00     0.181 C 
HETATM   11  O   UNK N   1      34.988  19.000   8.370  0.00  0.00    -0.290 OA
BRANCH  10  12
HETATM   12  C   UNK N   1      34.895  16.878   9.384  0.00  0.00     0.145 C 
HETATM   13  C   UNK N   1      35.138  15.432   8.998  0.00  0.00     0.040 C 
BRANCH  12  14
HETATM   14  N   UNK N   1      35.125  17.231  10.775  0.00  0.00    -0.420 N 
HETATM   15  H   UNK N   1      35.905  16.816  11.285  0.00  0.00     0.150 HD
HETATM   16  H   UNK N   1      34.508  17.895  11.242  0.00  0.00     0.150 HD
ENDBRANCH  12  14
ENDBRANCH  10  12
ENDBRANCH   1  10
TORSDOF 3
ENDMDL
MODEL 2
REMARK VINA RESULT:      -5.6      1.054      2.079
REMARK  3 active torsions:
REMARK  status: ('A' for Active; 'I' for Inactive)
REMARK    1  A    between atoms: C_2  and  C_3 
REMARK    2  A    between atoms: C_2  and  N_14 
REMARK    3  A    between atoms: C_3  and  C_5 
ROOT
HETATM    1  C   UNK N   1      33.419  17.616   7.257  0.00  0.00     0.015 A 
HETATM    2  C   UNK N   1      32.054  17.438   7.592  0.00  0.00     0.018 A 
HETATM    3  C   UNK N   1      31.096  17.168   6.603  0.00  0.00     0.040 A 
HETATM    4  C   UNK N   1      31.539  17.084   5.292  0.00  0.00     0.105 A 
HETATM    5  C   UNK N   1      32.822  17.249   4.953  0.00  0.00     0.105 A 
HETATM    6  C   UNK N   1      33.812  17.519   5.900  0.00  0.00     0.055 A 
HETATM    7  O   UNK N   1      32.949  17.114   3.635  0.00  0.00    -0.323 OA
HETATM    8  C   UNK N   1      31.684  16.848   3.095  0.00  0.00     0.352 A 
HETATM    9  O   UNK N   1      30.823  16.841   4.196  0.00  0.00    -0.323 OA
ENDROOT
BRANCH   1  10
HETATM   10  C   UNK N   1      34.432  17.902   8.311  0.00  0.00     0.181 C 
HETATM   11  O   UNK N   1      34.940  19.012   8.357  0.00  0.00    -0.290 OA
BRANCH  10  12
HETATM   12  C   UNK N   1      34.863  16.873   9.335  0.00  0.00     0.145 C 
HETATM   13  C   UNK N   1      35.067  15.416   8.971  0.00  0.00     0.040 C 
BRANCH  12  14
HETATM   14  N   UNK N   1      35.101  17.240  10.721  0.00  0.00    -0.420 N 
HETATM   15  H   UNK N   1      35.482  18.159  10.947  0.00  0.00     0.150 HD
HETATM   16  H   UNK N   1      34.887  16.580  11.468  0.00  0.00     0.150 HD
ENDBRANCH  12  14
ENDBRANCH  10  12
ENDBRANCH   1  10
TORSDOF 3
ENDMDL
MODEL 3
REMARK VINA RESULT:      -5.3      1.612      2.066
REMARK  3 active torsions:
REMARK  status: ('A' for Active; 'I' for Inactive)
REMARK    1  A    between atoms: C_2  and  C_3 
REMARK    2  A    between atoms: C_2  and  N_14 
REMARK    3  A    between atoms: C_3  and  C_5 
ROOT
HETATM    1  C   UNK N   1      32.411  17.531   7.707  0.00  0.00     0.015 A 
HETATM    2  C   UNK N   1      31.775  17.051   6.536  0.00  0.00     0.018 A 
HETATM    3  C   UNK N   1      30.377  17.068   6.413  0.00  0.00     0.040 A 
HETATM    4  C   UNK N   1      29.649  17.574   7.480  0.00  0.00     0.105 A 
HETATM    5  C   UNK N   1      30.229  18.032   8.594  0.00  0.00     0.105 A 
HETATM    6  C   UNK N   1      31.615  18.036   8.764  0.00  0.00     0.055 A 
HETATM    7  O   UNK N   1      29.288  18.451   9.438  0.00  0.00    -0.323 OA
HETATM    8  C   UNK N   1      28.038  18.252   8.839  0.00  0.00     0.352 A 
HETATM    9  O   UNK N   1      28.327  17.690   7.592  0.00  0.00    -0.323 OA
ENDROOT
BRANCH   1  10
HETATM   10  C   UNK N   1      33.895  17.510   7.832  0.00  0.00     0.181 C 
HETATM   11  O   UNK N   1      34.563  18.180   7.058  0.00  0.00    -0.290 OA
BRANCH  10  12
HETATM   12  C   UNK N   1      34.618  16.690   8.880  0.00  0.00     0.145 C 
HETATM   13  C   UNK N   1      35.112  15.285   8.599  0.00  0.00     0.040 C 
BRANCH  12  14
HETATM   14  N   UNK N   1      34.872  17.219  10.210  0.00  0.00    -0.420 N 
HETATM   15  H   UNK N   1      35.733  16.976  10.700  0.00  0.00     0.150 HD
HETATM   16  H   UNK N   1      34.190  17.833  10.654  0.00  0.00     0.150 HD
ENDBRANCH  12  14
ENDBRANCH  10  12
ENDBRANCH   1  10
TORSDOF 3
ENDMDL
MODEL 4
REMARK VINA RESULT:      -5.3     10.303     12.785
REMARK  3 active torsions:
REMARK  status: ('A' for Active; 'I' for Inactive)
REMARK    1  A    between atoms: C_2  and  C_3 
REMARK    2  A    between atoms: C_2  and  N_14 
REMARK    3  A    between atoms: C_3  and  C_5 
ROOT
HETATM    1  C   UNK N   1      35.326  12.474  17.180  0.00  0.00     0.015 A 
HETATM    2  C   UNK N   1      35.193  13.271  18.344  0.00  0.00     0.018 A 
HETATM    3  C   UNK N   1      35.169  12.689  19.620  0.00  0.00     0.040 A 
HETATM    4  C   UNK N   1      35.279  11.309  19.695  0.00  0.00     0.105 A 
HETATM    5  C   UNK N   1      35.404  10.537  18.610  0.00  0.00     0.105 A 
HETATM    6  C   UNK N   1      35.434  11.069  17.319  0.00  0.00     0.055 A 
HETATM    7  O   UNK N   1      35.488   9.263  18.985  0.00  0.00    -0.323 OA
HETATM    8  C   UNK N   1      35.413   9.209  20.383  0.00  0.00     0.352 A 
HETATM    9  O   UNK N   1      35.280  10.542  20.783  0.00  0.00    -0.323 OA
ENDROOT
BRANCH   1  10
HETATM   10  C   UNK N   1      35.351  13.096  15.828  0.00  0.00     0.181 C 
HETATM   11  O   UNK N   1      34.318  13.137  15.176  0.00  0.00    -0.290 OA
BRANCH  10  12
HETATM   12  C   UNK N   1      36.607  13.686  15.220  0.00  0.00     0.145 C 
HETATM   13  C   UNK N   1      37.203  14.989  15.716  0.00  0.00     0.040 C 
BRANCH  12  14
HETATM   14  N   UNK N   1      37.300  13.024  14.127  0.00  0.00    -0.420 N 
HETATM   15  H   UNK N   1      38.120  12.448  14.318  0.00  0.00     0.150 HD
HETATM   16  H   UNK N   1      36.966  13.134  13.170  0.00  0.00     0.150 HD
ENDBRANCH  12  14
ENDBRANCH  10  12
ENDBRANCH   1  10
TORSDOF 3
ENDMDL
MODEL 5
REMARK VINA RESULT:      -5.2      7.345      9.716
REMARK  3 active torsions:
REMARK  status: ('A' for Active; 'I' for Inactive)
REMARK    1  A    between atoms: C_2  and  C_3 
REMARK    2  A    between atoms: C_2  and  N_14 
REMARK    3  A    between atoms: C_3  and  C_5 
ROOT
HETATM    1  C   UNK N   1      24.833  19.795   3.984  0.00  0.00     0.015 A 
HETATM    2  C   UNK N   1      24.134  18.725   4.597  0.00  0.00     0.018 A 
HETATM    3  C   UNK N   1      22.782  18.485   4.309  0.00  0.00     0.040 A 
HETATM    4  C   UNK N   1      22.162  19.333   3.404  0.00  0.00     0.105 A 
HETATM    5  C   UNK N   1      22.802  20.348   2.813  0.00  0.00     0.105 A 
HETATM    6  C   UNK N   1      24.146  20.628   3.067  0.00  0.00     0.055 A 
HETATM    7  O   UNK N   1      21.961  20.983   2.001  0.00  0.00    -0.323 OA
HETATM    8  C   UNK N   1      20.715  20.347   2.070  0.00  0.00     0.352 A 
HETATM    9  O   UNK N   1      20.900  19.302   2.979  0.00  0.00    -0.323 OA
ENDROOT
BRANCH   1  10
HETATM   10  C   UNK N   1      26.267  20.045   4.293  0.00  0.00     0.181 C 
HETATM   11  O   UNK N   1      27.069  20.107   3.373  0.00  0.00    -0.290 OA
BRANCH  10  12
HETATM   12  C   UNK N   1      26.782  20.229   5.706  0.00  0.00     0.145 C 
HETATM   13  C   UNK N   1      26.892  21.598   6.348  0.00  0.00     0.040 C 
BRANCH  12  14
HETATM   14  N   UNK N   1      27.194  19.093   6.514  0.00  0.00    -0.420 N 
HETATM   15  H   UNK N   1      26.605  18.262   6.563  0.00  0.00     0.150 HD
HETATM   16  H   UNK N   1      28.072  19.126   7.031  0.00  0.00     0.150 HD
ENDBRANCH  12  14
ENDBRANCH  10  12
ENDBRANCH   1  10
TORSDOF 3
ENDMDL
MODEL 6
REMARK VINA RESULT:      -5.1      2.732      5.288
REMARK  3 active torsions:
REMARK  status: ('A' for Active; 'I' for Inactive)
REMARK    1  A    between atoms: C_2  and  C_3 
REMARK    2  A    between atoms: C_2  and  N_14 
REMARK    3  A    between atoms: C_3  and  C_5 
ROOT
HETATM    1  C   UNK N   1      30.660  16.848   6.249  0.00  0.00     0.015 A 
HETATM    2  C   UNK N   1      31.473  16.990   5.096  0.00  0.00     0.018 A 
HETATM    3  C   UNK N   1      32.812  17.395   5.200  0.00  0.00     0.040 A 
HETATM    4  C   UNK N   1      33.304  17.651   6.471  0.00  0.00     0.105 A 
HETATM    5  C   UNK N   1      32.555  17.524   7.572  0.00  0.00     0.105 A 
HETATM    6  C   UNK N   1      31.219  17.123   7.520  0.00  0.00     0.055 A 
HETATM    7  O   UNK N   1      33.289  17.833   8.639  0.00  0.00    -0.323 OA
HETATM    8  C   UNK N   1      34.575  18.177   8.206  0.00  0.00     0.352 A 
HETATM    9  O   UNK N   1      34.529  18.043   6.815  0.00  0.00    -0.323 OA
ENDROOT
BRANCH   1  10
HETATM   10  C   UNK N   1      29.240  16.417   6.132  0.00  0.00     0.181 C 
HETATM   11  O   UNK N   1      28.987  15.356   5.580  0.00  0.00    -0.290 OA
BRANCH  10  12
HETATM   12  C   UNK N   1      28.087  17.239   6.669  0.00  0.00     0.145 C 
HETATM   13  C   UNK N   1      27.973  18.728   6.408  0.00  0.00     0.040 C 
BRANCH  12  14
HETATM   14  N   UNK N   1      27.031  16.632   7.463  0.00  0.00    -0.420 N 
HETATM   15  H   UNK N   1      26.543  17.183   8.168  0.00  0.00     0.150 HD
HETATM   16  H   UNK N   1      26.779  15.656   7.315  0.00  0.00     0.150 HD
ENDBRANCH  12  14
ENDBRANCH  10  12
ENDBRANCH   1  10
TORSDOF 3
ENDMDL
MODEL 7
REMARK VINA RESULT:      -5.1     12.129     13.603
REMARK  3 active torsions:
REMARK  status: ('A' for Active; 'I' for Inactive)
REMARK    1  A    between atoms: C_2  and  C_3 
REMARK    2  A    between atoms: C_2  and  N_14 
REMARK    3  A    between atoms: C_3  and  C_5 
ROOT
HETATM    1  C   UNK N   1      29.568  23.932  -3.164  0.00  0.00     0.015 A 
HETATM    2  C   UNK N   1      30.184  25.018  -3.835  0.00  0.00     0.018 A 
HETATM    3  C   UNK N   1      29.416  26.023  -4.441  0.00  0.00     0.040 A 
HETATM    4  C   UNK N   1      28.037  25.911  -4.357  0.00  0.00     0.105 A 
HETATM    5  C   UNK N   1      27.434  24.896  -3.729  0.00  0.00     0.105 A 
HETATM    6  C   UNK N   1      28.155  23.872  -3.110  0.00  0.00     0.055 A 
HETATM    7  O   UNK N   1      26.115  25.052  -3.809  0.00  0.00    -0.323 OA
HETATM    8  C   UNK N   1      25.852  26.226  -4.525  0.00  0.00     0.352 A 
HETATM    9  O   UNK N   1      27.113  26.734  -4.850  0.00  0.00    -0.323 OA
ENDROOT
BRANCH   1  10
HETATM   10  C   UNK N   1      30.388  22.868  -2.522  0.00  0.00     0.181 C 
HETATM   11  O   UNK N   1      30.575  22.913  -1.315  0.00  0.00    -0.290 OA
BRANCH  10  12
HETATM   12  C   UNK N   1      31.005  21.726  -3.302  0.00  0.00     0.145 C 
HETATM   13  C   UNK N   1      30.394  21.212  -4.591  0.00  0.00     0.040 C 
BRANCH  12  14
HETATM   14  N   UNK N   1      32.218  21.067  -2.845  0.00  0.00    -0.420 N 
HETATM   15  H   UNK N   1      32.472  20.152  -3.217  0.00  0.00     0.150 HD
HETATM   16  H   UNK N   1      32.814  21.519  -2.153  0.00  0.00     0.150 HD
ENDBRANCH  12  14
ENDBRANCH  10  12
ENDBRANCH   1  10
TORSDOF 3
ENDMDL
MODEL 8
REMARK VINA RESULT:      -5.0      3.508      5.428
REMARK  3 active torsions:
REMARK  status: ('A' for Active; 'I' for Inactive)
REMARK    1  A    between atoms: C_2  and  C_3 
REMARK    2  A    between atoms: C_2  and  N_14 
REMARK    3  A    between atoms: C_3  and  C_5 
ROOT
HETATM    1  C   UNK N   1      35.133  14.704  11.100  0.00  0.00     0.015 A 
HETATM    2  C   UNK N   1      34.296  14.115  10.120  0.00  0.00     0.018 A 
HETATM    3  C   UNK N   1      33.842  14.855   9.017  0.00  0.00     0.040 A 
HETATM    4  C   UNK N   1      34.245  16.179   8.927  0.00  0.00     0.105 A 
HETATM    5  C   UNK N   1      35.035  16.754   9.840  0.00  0.00     0.105 A 
HETATM    6  C   UNK N   1      35.512  16.060  10.954  0.00  0.00     0.055 A 
HETATM    7  O   UNK N   1      35.253  18.021   9.495  0.00  0.00    -0.323 OA
HETATM    8  C   UNK N   1      34.570  18.277   8.299  0.00  0.00     0.352 A 
HETATM    9  O   UNK N   1      33.944  17.067   7.983  0.00  0.00    -0.323 OA
ENDROOT
BRANCH   1  10
HETATM   10  C   UNK N   1      35.612  13.914  12.267  0.00  0.00     0.181 C 
HETATM   11  O   UNK N   1      34.945  13.908  13.291  0.00  0.00    -0.290 OA
BRANCH  10  12
HETATM   12  C   UNK N   1      36.897  13.111  12.244  0.00  0.00     0.145 C 
HETATM   13  C   UNK N   1      37.139  11.957  13.197  0.00  0.00     0.040 C 
BRANCH  12  14
HETATM   14  N   UNK N   1      37.960  13.415  11.300  0.00  0.00    -0.420 N 
HETATM   15  H   UNK N   1      38.593  14.195  11.479  0.00  0.00     0.150 HD
HETATM   16  H   UNK N   1      38.074  12.849  10.460  0.00  0.00     0.150 HD
ENDBRANCH  12  14
ENDBRANCH  10  12
ENDBRANCH   1  10
TORSDOF 3
ENDMDL
MODEL 9
REMARK VINA RESULT:      -4.9     15.764     17.024
REMARK  3 active torsions:
REMARK  status: ('A' for Active; 'I' for Inactive)
REMARK    1  A    between atoms: C_2  and  C_3 
REMARK    2  A    between atoms: C_2  and  N_14 
REMARK    3  A    between atoms: C_3  and  C_5 
ROOT
HETATM    1  C   UNK N   1      26.220  24.100  -6.238  0.00  0.00     0.015 A 
HETATM    2  C   UNK N   1      25.733  25.154  -7.050  0.00  0.00     0.018 A 
HETATM    3  C   UNK N   1      25.478  26.424  -6.511  0.00  0.00     0.040 A 
HETATM    4  C   UNK N   1      25.722  26.604  -5.158  0.00  0.00     0.105 A 
HETATM    5  C   UNK N   1      26.182  25.623  -4.373  0.00  0.00     0.105 A 
HETATM    6  C   UNK N   1      26.451  24.344  -4.863  0.00  0.00     0.055 A 
HETATM    7  O   UNK N   1      26.319  26.084  -3.132  0.00  0.00    -0.323 OA
HETATM    8  C   UNK N   1      25.928  27.428  -3.113  0.00  0.00     0.352 A 
HETATM    9  O   UNK N   1      25.557  27.708  -4.432  0.00  0.00    -0.323 OA
ENDROOT
BRANCH   1  10
HETATM   10  C   UNK N   1      26.489  22.755  -6.816  0.00  0.00     0.181 C 
HETATM   11  O   UNK N   1      27.627  22.312  -6.779  0.00  0.00    -0.290 OA
BRANCH  10  12
HETATM   12  C   UNK N   1      25.409  21.904  -7.451  0.00  0.00     0.145 C 
HETATM   13  C   UNK N   1      25.599  21.245  -8.804  0.00  0.00     0.040 C 
BRANCH  12  14
HETATM   14  N   UNK N   1      24.135  21.681  -6.788  0.00  0.00    -0.420 N 
HETATM   15  H   UNK N   1      23.702  22.432  -6.250  0.00  0.00     0.150 HD
HETATM   16  H   UNK N   1      23.673  20.775  -6.861  0.00  0.00     0.150 HD
ENDBRANCH  12  14
ENDBRANCH  10  12
ENDBRANCH   1  10
TORSDOF 3
ENDMDL
